159
 SCF done       -271.362827495394          0.000368601938
C           5.20589226898526    6.86251779713479    2.14724058117430
C           4.88856205488595    7.33093603486081    0.90041239200893
C           5.56381010306852    8.38761763311044    0.25892562360378
N           6.06675185837916    9.25984983293978   -0.29295742947367
C           3.90037054490972    6.74197218979042    0.08490203669710
N           3.16881358137644    6.24761697766421   -0.64837562129315
C           6.39593501915049    7.20529404309635    2.91484863944648
C           6.61969322941535    6.18153669509204    3.88264086823395
C           7.69356500571651    6.21544362989271    4.72451917867050
C           8.59981942872328    7.29674998129314    4.64348052307706
C           8.37362332190121    8.32950384475805    3.68782092246690
C           7.25805444099810    8.26479569065537    2.82197841347098
C           9.28235259386711    9.40544824505189    3.62357530724920
C          10.36394253240882    9.45959195890406    4.45968463138564
C          10.58654545794016    8.44177305870838    5.39921036804114
C           9.72374286129278    7.38341987276077    5.48854610795628
C           5.53655863476714    5.18292332676019    3.80105204854625
O           5.42111823253325    4.15377140942829    4.42522714223762
C           4.56267377374084    5.75000036184287    2.82474774833136
C           3.28636366742140    5.30333589844270    2.78249909786209
C           2.15124618152654    5.97727632584217    2.20289873130220
C           2.04404853162961    7.37358721611689    2.23816513450353
C           0.96489594065361    8.01112117728209    1.67591412820684
C          -0.04233829733033    7.28092129811712    1.03825314445945
C           0.03887350178566    5.88695159704991    1.04560049123189
C           1.10822685513796    5.24484373524960    1.62880912665290
C          -1.19702818978166    7.95689189051904    0.44157242270280
C          -2.50475193804738    7.32617029633990    0.68981581689881
C          -3.42859555856164    7.16069615774609   -0.34040638295837
C          -4.64831522853005    6.55869404747502   -0.09735924890778
C          -4.96499339895897    6.11177594577988    1.17502917580184
C          -4.04888929016382    6.26062871156746    2.20323042789821
C          -2.82558320825625    6.85686294662019    1.96256673133121
C          -1.08198601933177    9.09221399698806   -0.28982326947669
C           0.21057703726258    9.63304575136735   -0.73528054611141
C           1.19769315742159    8.80815486618104   -1.27292221646675
C           2.40244007058808    9.34204661664261   -1.68904883678874
C           2.64596708369555   10.70043034171467   -1.57008560379486
C           1.66493091979421   11.53015645722355   -1.05203755530911
C           0.45240377273529   11.00416293990425   -0.64833949331613
C          -2.26273112739509    9.87712457302769   -0.67668542583219
C          -3.21549806766824   10.23529193802567    0.27818147250886
C          -4.30090063508122   11.00721958746339   -0.06747393946821
C          -4.48895930795372   11.41786324840447   -1.38947195697256
C          -3.53592179832972   11.06067689525226   -2.34539371899336
C          -2.42854090091729   10.32227636538956   -1.98775231024965
C          -5.65519927655761   12.21532004256510   -1.74428813896684
C          -6.39664491129633   11.99013710255295   -2.91662897393374
C          -7.56107723430656   12.78267424777731   -3.24779360598779
N          -8.18422683293144   12.58874890261151   -4.42542372416434
C          -7.78213369547624   11.63205377995223   -5.21688153087324
C          -6.70668868653659   10.75776182784616   -4.82439687215768
N          -6.04265173543014   10.96827415584823   -3.72061147341940
C          -6.35630729509977    9.65927414386006   -5.64831656284291
N          -6.10428915842780    8.78464520885585   -6.34407089517152
C          -8.42063435715938   11.46764353098671   -6.47107016604706
N          -8.92119752530741   11.31018335712373   -7.48960602547614
C          -8.03718682735492   13.80269248910261   -2.40558564827806
C          -7.28098130059022   14.04590306461374   -1.25045552883206
C          -6.11796757791873   13.25037095500680   -0.91624615979914
N          -5.56491654919991   13.65267844553310    0.23515180200678
S          -6.41325588763963   14.87299143728054    0.82587791090960
N          -7.52440008015410   14.97778688279996   -0.32050265923561
C          -9.23194792996124   14.56089283103279   -2.74143675377120
C         -10.35271908821215   13.91730839801862   -3.27316815249335
C         -11.45537904801460   14.63931768996593   -3.66379891464639
C         -11.46960380220256   16.03253808922424   -3.56137042579281
C         -10.37678596178810   16.66694696376489   -2.96639113497837
C          -9.27782289172256   15.94419221717826   -2.55745313396210
C         -12.61041513364816   16.81306489730033   -4.04889480908114
C         -13.02342933893504   17.94325649398691   -3.20350098908209
C         -13.11175665633976   17.78617774505310   -1.82091627986131
C         -13.48930214941350   18.84516486438082   -1.01732956270834
C         -13.76934150478335   20.08001310991508   -1.57888989399024
C         -13.66383482965203   20.25182078169679   -2.94967169955285
C         -13.29285647948315   19.19413513656974   -3.75730353272856
C         -13.21827328251627   16.52435606426783   -5.22954376451250
C         -12.64674358171562   15.54961418992559   -6.17525568931828
C         -13.46172595213200   14.58542310841196   -6.76549568554257
C         -12.92232241546043   13.63698972769348   -7.61488343728531
C         -11.56678644516292   13.64459217611557   -7.89882143508571
C         -10.75607663590234   14.62270382054305   -7.34577735598811
C         -11.28948163302800   15.57078255156246   -6.49485478724894
C         -14.47506977800741   17.15106342530058   -5.63878501210498
C         -15.52296715007260   17.33752509687246   -4.72926558672234
C         -16.70329402377876   17.90962479656418   -5.13166289254217
C         -16.90203904740951   18.32808595779194   -6.46334660975527
C         -15.85745109967360   18.11301705728923   -7.37498670354695
C         -14.67853094133823   17.53040833274940   -6.96852191638115
C         -18.17284562352360   18.92238580618567   -6.75479147396835
C         -18.75407228900166   19.46579919853315   -7.86293968643114
C         -20.11405235982756   20.00533980148328   -7.83912100129599
C         -21.02162632711206   19.93920141053898   -6.81365826560199
C         -22.32467876250851   20.47961035907707   -6.87682041334302
N         -23.39562504366343   20.89273224701552   -6.84754330470144
C         -20.84893915861491   19.32870276029415   -5.55257037480512
N         -20.82905100885475   18.86015620096135   -4.50295173251180
C         -20.38291574856794   20.61595189343115   -9.13498374323484
C         -19.24967423296646   20.41558870866653   -9.96894567199774
C         -18.20829422443731   19.68441434480511   -9.22834265020146
O         -17.13384603033710   19.35482597631301   -9.68669885082840
C         -19.20521368899179   20.86734701434389  -11.25633929491674
C         -20.31765923081110   21.56187979885276  -11.77991636999494
C         -21.45517770901979   21.77662506709177  -10.94945001564760
C         -21.47100885011517   21.29341515105927   -9.62132520775246
C         -22.55938643529447   22.47565011395924  -11.47897736193604
C         -22.54309855371906   22.93826826426724  -12.76639835592171
C         -21.42292696814732   22.72422313403860  -13.58371567749781
C         -20.33383940205064   22.05095912231214  -13.10090171800729
H           7.85066860198759    5.42681425338754    5.44534143094792
H           7.10350707377197    9.06172221423676    2.11078127682299
H           9.10836314705436   10.18512788548786    2.89653130781871
H          11.05490830221068   10.28723929926056    4.40153608719077
H          11.44486072895765    8.50059535720152    6.05163654465230
H           9.88996750289465    6.59666244578186    6.20983890005911
H           3.09342359770493    4.36616547255678    3.29450323752758
H           2.80163329859141    7.95223387218321    2.74807760802617
H           0.88626294334982    9.08635631367578    1.73503275422078
H          -0.74355535989549    5.31029029105348    0.57447682060723
H           1.16962625232648    4.16705196524638    1.60800799940313
H          -3.18010881341544    7.49147138956924   -1.33774592095207
H          -5.35303608091515    6.43374608040156   -0.90617963078796
H          -5.91949387668092    5.64318621131457    1.36350259123031
H          -4.28829764910716    5.90911304026535    3.19629656170580
H          -2.11342680248701    6.97598130613886    2.76727591727943
H           1.01902480129870    7.74816523493892   -1.37296135063305
H           3.15605792924065    8.69256348376900   -2.10797236178774
H           3.59513189031281   11.10821709042640   -1.88304710829578
H           1.84478206038152   12.59180908798962   -0.96359774286583
H          -0.31135315719496   11.65219744972249   -0.24088685143630
H          -3.08755010574513    9.91336111401957    1.30109778401495
H          -5.02646695529018   11.28223611057196    0.68176710166809
H          -3.65430511941651   11.38969539228169   -3.36583208435848
H          -1.68682168374478   10.06725543361361   -2.73091715380180
H         -10.36070648835203   12.84216887090504   -3.35937485441806
H         -12.32083208305268   14.12454691732058   -4.05214716940498
H         -10.38381131082733   17.74209177453038   -2.85793938418115
H          -8.42814453251950   16.44862791363802   -2.12453354652787
H         -12.89722245275824   16.82167380644124   -1.38272922143213
H         -13.56429382847554   18.70737883837861    0.05134253384119
H         -14.06292885247274   20.90726204055684   -0.95016210306282
H         -13.86800784272780   21.21630777935954   -3.39087700138883
H         -13.19573079631674   19.33587110942240   -4.82385319310556
H         -14.51766508919290   14.56876995256996   -6.53343661723580
H         -13.56247639435007   12.88518474238822   -8.05257768159563
H         -11.13998028909316   12.89369593513416   -8.54532858194207
H          -9.70172159817369   14.64087937894955   -7.57756244430250
H         -10.65620303238474   16.33837856303029   -6.07403688726500
H         -15.40397333466267   17.01189605916667   -3.70682095202421
H         -17.50088777741639   18.03781376071901   -4.41353580843978
H         -15.97617444019202   18.40673502867007   -8.40378766481057
H         -13.88485619969461   17.37743727009600   -7.68562356851676
H         -18.80370098704497   18.94425720269042   -5.87328704817278
H         -18.33035944666362   20.69610763099498  -11.86601717817960
H         -22.34815526670741   21.47660886624145   -9.02214952257105
H         -23.41992103710978   22.63692716749838  -10.84629006789128
H         -23.39396548155387   23.47181843082896  -13.16289622743377
H         -21.42757495038724   23.09572191374151  -14.59758973069969
H         -19.46820034039103   21.88315639306514  -13.72499910365082
