157
 SCF done       -270.789840979574          0.000826157331
C          -0.58727829763716    4.00564588972485    7.28643946818627
C          -1.88599654717329    4.42500005521344    7.17638476861543
C          -2.99687782472880    3.63524569819480    7.53856150537675
N          -3.93743534262335    3.03022194913909    7.79891381106816
C          -2.28460881945712    5.71755833881293    6.77772370399506
N          -2.69287659077837    6.76234736905897    6.53271588729312
C          -0.15348612355068    2.77948828406550    7.94754912965119
C           1.22375903773276    2.91075962138216    8.29270842408578
C           1.89250839520451    1.92806659781092    8.96394550921517
C           1.20612526223923    0.74502934361853    9.31825331683858
C          -0.16579999280342    0.60015482325985    8.96138394707275
C          -0.83472526951383    1.63643969741672    8.27091842440364
C          -0.83758672103401   -0.58767099715594    9.31561382480907
C          -0.18856753434151   -1.58388769734163    9.99236107919629
C           1.16202794119965   -1.43999750778141   10.34400020178777
C           1.84419585725515   -0.30050315713602   10.01443488115208
C           1.72833263824086    4.20508211287915    7.80109650741480
O           2.82796171720366    4.68550075051821    7.95328512907451
C           0.60474950625214    4.78954513121108    7.01238975681399
C           0.84458788737997    5.80926942279366    6.15631353552230
C          -0.00055745402574    6.29384574551250    5.09556116964499
C          -0.01284223939346    7.65782648149200    4.78661878149847
C          -0.87221848061835    8.15331514399810    3.83382967709057
C          -1.71627588481064    7.29952420590853    3.12053372881584
C          -1.64994791087355    5.92717451638311    3.37655639720444
C          -0.81235863361212    5.43237092221514    4.34813031366504
C          -2.71825802970243    7.83204164974970    2.19210985304751
C          -4.05113180542427    7.21976006825252    2.30877701464913
C          -4.79586057012036    6.89637658126260    1.17522353440599
C          -6.03511440956075    6.29866555948867    1.30001265142437
C          -6.54813411168755    6.00991323837930    2.55446700647952
C          -5.81008060641578    6.31588353733491    3.68595399154688
C          -4.56896370737086    6.91252890812078    3.56735842173789
C          -2.44189584416330    8.82745153020503    1.31308566926379
C          -1.06216976476291    9.25922769994297    1.03890728014214
C          -0.04625636020450    8.32615778841608    0.83732622216029
C           1.24376069844882    8.74148925666417    0.56841856759446
C           1.54087739864318   10.09262828104168    0.49531776023225
C           0.53623866803478   11.02787485319766    0.68185219034473
C          -0.75655868315347   10.61635479803321    0.94435105632467
C          -3.48691357672757    9.55362384648312    0.58341597217365
C          -4.64805987591263    9.98157714859788    1.23042630268831
C          -5.59312522329361   10.72600580416621    0.56209468438845
C          -5.41920762850090   11.06592301998580   -0.78294392433436
C          -4.25887337129069   10.63537696968252   -1.43102170461963
C          -3.30790203349033    9.90153207394770   -0.75633368038590
C          -6.40610367410149   11.88951041862505   -1.47037524742827
C          -6.74167714217356   11.71738812758097   -2.82293684873557
C          -7.68021832632639   12.57819588914531   -3.50185303299707
N          -7.90598638989024   12.39469880420099   -4.82756707576061
C          -7.32568774783284   11.42125375360078   -5.43798757851013
C          -6.46771574786577   10.51896410056206   -4.74715570643517
N          -6.18862161475479   10.67994726003104   -3.50091392032624
F          -5.92524495237053    9.47662464283753   -5.37844814827838
F          -7.55458076868829   11.27875766438757   -6.74418634510791
C          -8.33741666743554   13.63210129024166   -2.84883864479697
C          -8.02058430543755   13.79401222514460   -1.48898565638224
C          -7.07810782299059   12.93231002275847   -0.80813885230852
N          -6.93512643426120   13.28204149273413    0.47632110499818
S          -7.89086781440404   14.52546123301204    0.79141456523170
N          -8.53391320337380   14.71196255887872   -0.66027863248648
C          -9.28700453366431   14.51933868342860   -3.50941732831494
C         -10.18795897131936   14.04611839226225   -4.46588881210111
C         -11.10690905327408   14.89411699766114   -5.04548322732555
C         -11.17074584493673   16.23863211721435   -4.67891974550392
C         -10.24666687123055   16.71927142173285   -3.74983780401364
C          -9.32448320558654   15.87600327701752   -3.17422474813526
C         -12.17763969035377   17.12879321318429   -5.27094955668384
C         -12.36216898873813   17.00882572689246   -6.72442552190913
C         -13.63551216531181   16.98241098397451   -7.29149744683819
C         -13.79068493246625   16.85547281954380   -8.65845392107117
C         -12.68016839247293   16.74962267167540   -9.48015297026200
C         -11.41114367504388   16.75856887445644   -8.92514531987288
C         -11.25180083581562   16.87973167347137   -7.55780115988776
C         -12.89897007582403   17.98633952409003   -4.50793428140963
C         -12.86151548034760   17.94070517371353   -3.03548913192172
C         -12.74690592977376   19.12231021756413   -2.30527132733695
C         -12.70646919218994   19.09147744951149   -0.92403643787485
C         -12.79346001744696   17.88385921351831   -0.25161106853220
C         -12.93088657154687   16.70636668844874   -0.96832691778747
C         -12.96735696610675   16.73246935477300   -2.34902520880645
C         -13.76888283779946   19.02162370404011   -5.07358171184291
C         -15.03424738353271   19.24624387850462   -4.52228508010125
C         -15.85255303019899   20.22869158336530   -5.02597583965817
C         -15.41445508884027   21.07162711929548   -6.05866910482786
C         -14.14841585763802   20.84213888605623   -6.61131236672248
C         -13.34759570545918   19.83093982860535   -6.13119065822033
C         -16.31192711251104   22.09145185619150   -6.52937929338444
C         -16.01854780712353   23.32171415570128   -7.02629112477632
C         -17.00397312693374   24.26334125527938   -7.53903141889255
C         -18.27508823636503   23.96136357694846   -7.95052346315736
C         -19.18440584047544   24.90996336463179   -8.46357120910529
N         -19.97141460948667   25.63403405269434   -8.88133614024270
C         -18.84430195891630   22.67012037163535   -7.95644393065670
N         -19.37423616578640   21.65277072033334   -8.01485393362375
C         -16.37326642155755   25.57292962493727   -7.62343417550429
C         -15.00494287304061   25.43882561614498   -7.25565796951143
C         -14.71563721690749   24.03474114032354   -6.90836063516637
O         -13.64726354455594   23.59611123642203   -6.54281263179198
C         -14.15302744480373   26.50538950012855   -7.24545318253812
C         -14.64080509874436   27.78035138942723   -7.60939427306471
C         -16.01158852551111   27.92470487053106   -7.97039048441394
C         -16.86983023260249   26.80174754293004   -7.97145532036476
C         -16.48934317859044   29.20300274383994   -8.32486729936464
C         -15.65456776546964   30.28696096613281   -8.32588786168342
C         -14.30452438913588   30.14333335975997   -7.97220175740067
C         -13.80854192714563   28.91692716812265   -7.62204637397764
H           2.93367134002210    2.05178341344855    9.22257971257619
H          -1.87086169390702    1.49642109211831    8.00480650741415
H          -1.87822249984229   -0.69216089768688    9.04558714904969
H          -0.71256175863892   -2.48879599594040   10.26137345207033
H           1.65890399595328   -2.23663386512131   10.87721142616312
H           2.88408819703159   -0.18388711918558   10.28267310315093
H           1.81131313062798    6.29128955093983    6.26648229282344
H           0.61704613859694    8.33100667031953    5.34893486704684
H          -0.91588559042045    9.21614681723733    3.65152513205461
H          -2.27276842663042    5.25218127991406    2.80722494597325
H          -0.76244965968077    4.36703052656786    4.52544776854458
H          -4.39229923255537    7.10293714786155    0.19478725776243
H          -6.60137966503644    6.05148985672071    0.41396994491842
H          -7.51705571930719    5.54223085141640    2.64870680558643
H          -6.19980029664332    6.08706775761136    4.66689143197820
H          -3.99979651308277    7.15224435896323    4.45441920787850
H          -0.27748430266091    7.27169428520384    0.87799708037736
H           2.02101324014800    8.00811882112677    0.41078241700751
H           2.55028862566955   10.41528104793898    0.28786786013131
H           0.76151746996847   12.08261852568948    0.62109266976854
H          -1.53881722179894   11.34695519410589    1.09432208553609
H          -4.79441744619841    9.74025402375766    2.27246739281850
H          -6.48220291926810   11.04812118045511    1.07957098362541
H          -4.09409567023577   10.90337388741551   -2.46183594950568
H          -2.41107074279640    9.58569239295495   -1.26996874324639
H         -10.17843183077014   13.00256727782473   -4.73488735537972
H         -11.80922253831109   14.51029830245927   -5.77169087369016
H         -10.25135213328141   17.76714287032752   -3.48946603276449
H          -8.61351746342611   16.26712957906494   -2.46438522525236
H         -14.50462004614174   17.04633303206460   -6.65322558190632
H         -14.78280061698523   16.83485168763124   -9.08486081428902
H         -12.80394102990464   16.65322273881268  -10.54851222780841
H         -10.54219115426901   16.66831055071839   -9.56026951658410
H         -10.26114518842954   16.88962086144072   -7.12597993233013
H         -12.67211625530821   20.06483561836313   -2.82930564226975
H         -12.60641143777452   20.01348124610583   -0.37006337059413
H         -12.76069255040955   17.86089092907879    0.82754293891973
H         -13.01216516373280   15.76314000357015   -0.44864800077915
H         -13.08919950313620   15.81380952945329   -2.90368441121418
H         -15.37484965399658   18.62188248406470   -3.70862194285527
H         -16.83557757378255   20.37959241743009   -4.60295892924733
H         -13.80654568730877   21.44444727387915   -7.43609116966538
H         -12.37207431209577   19.66952932065252   -6.56442540826723
H         -17.36162444534524   21.84126889970224   -6.41883950220479
H         -13.11837546747684   26.37692635646655   -6.96360809960966
H         -17.90405528061678   26.94414104061337   -8.24202560477874
H         -17.52916084384140   29.30794903004672   -8.59791780195264
H         -16.02985758185908   31.26168113605744   -8.59959335110244
H         -13.65980101620779   31.00951913843733   -7.97823910800765
H         -12.76999636361607   28.80034905066729   -7.34844238893140
