105
 SCF done       -209.572499487825          0.000419920635
C           0.20937239206833    1.51415925978917    2.29619015334652
C          -0.15740162678484    2.47396347109059    3.20033123156729
C          -0.80314018229876    2.19891161849901    4.42250139976200
N          -1.33018235439467    2.03206093481002    5.42837598195038
C           0.13500184099853    3.84113559923367    3.03563722067852
N           0.38984089277242    4.95745318277115    2.94516820201801
C           0.14772251075389    0.07469996790572    2.51525919449353
C           1.03567873026494   -0.56465052659620    1.60013216549260
C           1.21034555758858   -1.91888701444244    1.59924946498114
C           0.48624425475363   -2.70777775503535    2.52130418819914
C          -0.41570142560824   -2.07580710261505    3.42595945458367
C          -0.57236980087536   -0.67086024989222    3.40895947322199
C          -1.13767106631754   -2.87619963641473    4.33448965107302
C          -0.97569112588802   -4.23469902203846    4.35338682882695
C          -0.08627571778630   -4.85582770774465    3.46381399844490
C           0.62887235984610   -4.10876784259543    2.56766351025262
C           1.64905109281496    0.45102057682495    0.72785421060887
O           2.49587488131943    0.30100446956254   -0.12331801061491
C           0.95925987388318    1.72876067937199    1.07469314960338
C           1.04307861797462    2.78309382475686    0.22420682881433
C           0.19849673063624    3.92345439641121    0.16255274987876
C           0.43759657261216    5.16657548865042   -0.34708504464324
C          -0.74892453301386    5.99821938264697   -0.17177955881529
N          -1.72905983347652    5.22731407455334    0.36499028555829
C          -1.23295303025482    3.94617854083106    0.60296246087748
O          -1.90364772150719    3.03719779836129    1.02933305626898
C          -3.08198192538360    5.60891874367403    0.66267522424624
C          -0.49161055738290    7.24103232724451   -0.65159235615590
C           0.93295260862298    7.21806823911815   -1.11279333392085
O           1.61223978391749    8.12057551585850   -1.52501791033436
N           1.41504862843969    5.91500685580864   -0.90441913458646
C           2.76286293223570    5.51278826557420   -1.20289948182043
C          -1.26632806994832    8.45568795380234   -0.70205656110142
C          -1.25374114374670    9.25392099880141   -1.85873605544466
C          -1.90114727993632   10.53651393412677   -1.91460051253498
N          -1.84726571418918   11.26074234991985   -3.06040578092411
C          -1.23664002715771   10.76140680521307   -4.08085974790781
C          -0.65631971122942    9.45931731596265   -4.04454942553322
N          -0.67465455626610    8.74540991227000   -2.97301710773159
F          -0.11030626300782    8.93559337569066   -5.13803704603655
F          -1.17087363786985   11.50248916250586   -5.18484101471540
C          -2.63163790712117   11.03417200596517   -0.82453993804577
C          -2.64326008082187   10.23851083263112    0.33473197094168
C          -1.97919427942579    8.95747417208059    0.39748556344967
N          -2.09307812147143    8.40437033067598    1.61105806967154
S          -2.92335459385703    9.39624260243925    2.55693062599850
N          -3.18821371379314   10.57031378930517    1.50956565237947
C          -3.44827224659964   12.22273947708152   -0.85839962877912
C          -3.26091469572321   13.50301895379190   -1.27275010709152
C          -4.48796009313162   14.25681862160855   -1.02491375800028
N          -5.42174999880823   13.42264709419528   -0.51314524919474
C          -4.86454966942894   12.14298947315117   -0.38056999956552
O          -5.48492674829739   11.18221696592867   -0.00366172072271
C          -6.77689256912407   13.74436925175816   -0.15478327931687
C          -4.31982592623487   15.54591350805662   -1.42518408919433
C          -2.88187899050228   15.64897379021872   -1.84575615355853
O          -2.24068977680451   16.63733487656643   -2.08964307648215
N          -2.33213049054411   14.36384738108858   -1.75842852471021
C          -0.95532595005819   14.08837098340321   -2.06326842176200
C          -5.21696644108239   16.65041268767244   -1.38141674042798
C          -5.21848565486738   17.63362625037800   -2.31669782843281
C          -5.90667101113621   18.91109622247196   -2.28418208802696
C          -6.78417141266172   19.34345066414712   -1.32430973402975
C          -7.41934510031194   20.60302912000536   -1.33797306042362
N          -7.97004483066651   21.60910648994115   -1.29212956647153
C          -7.19933351549335   18.57669296670461   -0.21650043701504
N          -7.58282141887443   17.99251753845295    0.69518295577767
C          -5.49291857208871   19.65617934868516   -3.46653160389439
C          -4.66088992143032   18.82389384098002   -4.27188299711486
C          -4.52588101029405   17.50551439537259   -3.63131711926408
O          -4.07205565920112   16.49005877209791   -4.10888121793127
C          -4.13050101169600   19.26239907966924   -5.45031463471941
C          -4.40208977007658   20.58071594851063   -5.88104048142999
C          -5.23197297547099   21.41904642997383   -5.08137644687875
C          -5.77388401455521   20.93582650639510   -3.86919287457357
C          -5.49994680471047   22.73103721296715   -5.52311795017523
C          -4.97361344422488   23.19507558521380   -6.69763194374153
C          -4.15538699553238   22.36960620986602   -7.48349611984741
C          -3.87556454822422   21.09080956070921   -7.08388263860915
H           1.89198053393897   -2.38456136995855    0.90295168655433
H          -1.26976672859734   -0.21635950192619    4.09513984720410
H          -1.81919008085306   -2.39294627796574    5.01898680310029
H          -1.53193523551366   -4.83874927664625    5.05448946789672
H           0.02890794227081   -5.92906690431938    3.49197527711576
H           1.31472419394233   -4.58181207147087    1.88010517434311
H           1.80812860133035    2.70084678936911   -0.54174404772920
H          -3.57317200241425    5.99452420550596   -0.23218217837672
H          -3.08769839264684    6.37573893531804    1.43798438546138
H          -3.60172836810135    4.71881247819426    1.01507612456524
H           3.31856250540494    6.40948359142129   -1.47526166445823
H           2.78178873999134    4.81236268926463   -2.04010129441664
H           3.21949559362509    5.04588055056819   -0.32923808327160
H          -7.27990621622907   14.23948743568980   -0.98656397987204
H          -6.80470211169185   14.39650575794967    0.72017627735883
H          -7.28364035976863   12.80878584035729    0.07900505164718
H          -0.48282494916273   15.03637823043490   -2.31747554513286
H          -0.89192454031748   13.40556512862871   -2.90999114484493
H          -0.45436533501518   13.64296879541128   -1.20212502981801
H          -5.90033580523827   16.68912600144948   -0.54386359112973
H          -3.50472964369899   18.61289913111654   -6.04390662167558
H          -6.39811043145841   21.59404028094053   -3.28565714832734
H          -6.13052915143972   23.36224165584163   -4.91425091562713
H          -5.18467464798153   24.20115218505459   -7.02778860360526
H          -3.74805117722765   22.75228435492208   -8.40734928027170
H          -3.24637592294733   20.45111425733069   -7.68519837458236
