95
 SCF done       -190.414586414758          0.000706730637
C           2.29451065853381    1.12589152102320   -1.05539778103547
C           3.24193334644067    2.12285736149902   -1.03309463814713
C           4.55133730289807    1.96609108007827   -0.53956467840959
N           5.61623842734241    1.92926759150984   -0.11055199572818
C           3.04204977725900    3.40250567665591   -1.57757291832142
N           2.93510763423998    4.45747948472014   -2.02086875847438
C           2.55774553785026   -0.28962803870760   -0.81736484794110
C           1.44070223459806   -1.04185435425002   -1.28344834766827
C           1.42093724786314   -2.40500072333472   -1.23382006383602
C           2.53492424219473   -3.09142599757170   -0.69803717789510
C           3.64980130787035   -2.34532915772407   -0.21919360463187
C           3.64405856519937   -0.93224747907377   -0.28944777837706
C           4.75373406096478   -3.04131072793563    0.31262504935155
C           4.76016972416665   -4.40888451017792    0.36652612374737
C           3.66241763087282   -5.14257707927010   -0.10604670765851
C           2.57316238432830   -4.49743207704149   -0.62662697834287
C           0.41197209111843   -0.11488845529954   -1.78517727020480
O          -0.64878461666813   -0.38448279659704   -2.30124166478839
C           0.93270927781194    1.25461069081769   -1.49298187891593
C           0.06552086019422    2.30102585728770   -1.64151295709707
C           0.06694571323736    3.64584494032180   -1.22084870972276
C           0.69694450242505    4.32282180452588   -0.17429700016565
C           0.38927657909563    5.70165615030298   -0.14243939124159
S           1.17727345910752    6.82894297839708    0.93318254312540
C           2.76193240443958    5.92402172341470    1.09686332818091
C           2.55967228199397    4.68369916218723    1.92713150964057
S           1.57477613402120    3.42182853380617    1.03740829627607
C          -0.49852282861049    6.08491865030696   -1.14465757195860
S          -0.95267919056603    4.73375324880602   -2.12741358496388
C          -1.01621684403254    7.37161050997216   -1.48107598578797
C          -1.15062777038462    8.44358703257836   -0.57633660924935
C          -1.59274616447104    9.74998047986725   -0.99088978878982
N          -1.60526774058181   10.75457448759019   -0.09054841196536
C          -1.30499028332058   10.51241938676778    1.14278979442626
C          -0.97375694097008    9.20148364048939    1.57209957445875
N          -0.89081024837737    8.22388375989213    0.72888764648524
F          -0.73902808345277    8.94029481627667    2.85543559440225
F          -1.31840897015920   11.52889139345460    2.00050208208838
C          -1.96623714066841   10.03378354141842   -2.31842645276607
C          -1.89051023445354    8.94421241867196   -3.21396437114409
C          -1.44803125280958    7.63749402827671   -2.79999754359357
N          -1.48014875020534    6.76551991981642   -3.80734786077430
S          -2.01260927834630    7.50561908654029   -5.12881903443364
N          -2.23346813398118    8.96069845002027   -4.50173575846855
C          -2.34757902590621   11.32467272991531   -2.79789014371994
C          -3.01079736164785   12.36545761678284   -2.14788924683484
C          -3.17653632428207   13.48231284921097   -2.98105206778578
S          -3.95860748316915   15.00148179789521   -2.61258003953709
C          -4.54657608488216   14.77091216612041   -0.90291019161437
C          -5.06400235813852   13.37096740616823   -0.67979685438443
S          -3.65969687667407   12.20631819638942   -0.52768389376750
C          -2.62936496328162   13.30260364795651   -4.26901322407382
S          -1.94861167479478   11.71012083253120   -4.44145392956216
C          -2.64383455880500   14.31428672964157   -5.23683308457271
C          -2.16107910894420   14.31888723946530   -6.52162797679142
C          -2.20434448439856   15.44198320043892   -7.43754287227977
C          -2.73653680368682   16.68577780718145   -7.20797046372826
C          -2.73084518120762   17.73140164002561   -8.15481883138380
N          -2.75983312165583   18.62359721457910   -8.87740795423170
C          -3.36840692071635   17.11851395131954   -6.02355297143936
N          -3.89934999158142   17.56246510169389   -5.10622358079753
C          -1.57071592478132   15.01753954261456   -8.68382386148638
C          -1.16392205096360   13.65966080717045   -8.54514368682732
C          -1.51583963107666   13.18743208379401   -7.19829775763684
O          -1.30772787806508   12.07405744996015   -6.74604619022674
C          -0.54258142545366   12.98136342301079   -9.55309341102385
C          -0.28797585244205   13.64573773612463  -10.77390281331463
C          -0.68590943573882   15.00541972722073  -10.92107273301370
C          -1.33217981720433   15.67968376295516   -9.85839105458246
C          -0.42254256579682   15.66087340776800  -12.14066858914981
C           0.20330363087325   15.00631731163713  -13.16686346555455
C           0.59314391679046   13.66691008293881  -13.02120447092214
C           0.35243598506908   13.00090437526043  -11.84990639287690
H           0.56773349912432   -2.95569560933304   -1.60126126947957
H           4.50098887692862   -0.39314893009389    0.08344873936271
H           5.59806694569432   -2.47223931666311    0.67348287788971
H           5.61238002409419   -4.93260561738034    0.77320808651905
H           3.68372769522274   -6.22099830378096   -0.05616032720220
H           1.72459484701691   -5.05712141961114   -0.99226518019207
H          -0.83020876643260    2.02588314802721   -2.19581688210656
H           3.43409763606383    6.61395914548160    1.60496524977320
H           3.14705224013591    5.69872085996278    0.10222655415577
H           2.04638085960198    4.91670655907427    2.86075862412829
H           3.50636175045477    4.18637897276784    2.14498260225474
H          -5.33483412776183   15.51618258883486   -0.79003857674655
H          -3.73055227023528   14.99941161517630   -0.21695092964470
H          -5.72308790030661   13.04698305970519   -1.48485798382997
H          -5.58756505860999   13.29993035324115    0.27273786167854
H          -3.10555907939589   15.23232515793305   -4.89163224971144
H          -0.24687874231964   11.95126378179838   -9.41997233782279
H          -1.62003300989729   16.70825076681410  -10.00518546746098
H          -0.72489025142245   16.69225274120089  -12.24845643092117
H           0.40133808303271   15.51779993924262  -14.09691548421264
H           1.08549867232951   13.16546138426519  -13.84102665448281
H           0.65081253508925   11.96940127492500  -11.73132248848169
