101
 SCF done       -193.775209196321          0.000193447227
C          -0.59490618260127    8.70244491898083   -5.25327253946961
C          -0.49804503311031    9.54876285798266   -4.18063562415425
C          -1.12702535388482   10.80700295138646   -4.10735452875843
N          -1.60396668615687   11.84371970570358   -3.98022910007246
C           0.30208600478089    9.27856859110344   -3.05189670988537
N           0.97763794127180    9.11270563548810   -2.13747789843578
C          -1.18272917622573    9.04628576784707   -6.53999894849781
C          -0.60706260523285    8.20608189079211   -7.53798945918879
C          -0.94320463089120    8.33320324151059   -8.85487243373330
C          -1.89450544855109    9.30923300453746   -9.23148525832213
C          -2.49415035395294   10.12828437367411   -8.23096907291953
C          -2.12126123918690    9.98258499054082   -6.87502167487783
C          -3.45447720620503   11.08302484208226   -8.62224426453468
C          -3.80351978060424   11.22942035517059   -9.93700390585922
C          -3.21004530791307   10.42553120216187  -10.92159700033317
C          -2.27672599044781    9.48633890532368  -10.57603844343925
C           0.30611430357294    7.23959817835346   -6.89544415084400
O           1.00878415172696    6.40925142695420   -7.42571852626536
C           0.11757954979162    7.45155582954973   -5.43349675098060
C           0.45570510488633    6.47765400327557   -4.54270141232013
C          -0.06354257934503    6.32084631357732   -3.23994383384212
C           0.48981667208843    5.54152355538029   -2.21423310523979
O           1.61578160106382    4.85644352400966   -2.47009958770600
C           2.14397728300765    3.99347970749926   -1.48251976260796
C          -0.26059941873800    5.62073212986580   -1.02277458294466
O           0.06126519215854    5.03864121499069    0.18034076908299
C           0.72276214678633    5.91413805667943    1.08289018452141
C          -1.40955078450128    6.40030497283685   -1.16672709327750
S          -1.55696797043024    7.06526683089593   -2.75306260558948
C          -2.40510216393774    6.71438795552856   -0.22741326968833
C          -3.40571370651796    7.65832282434131   -0.49346905985831
C          -4.31838681347897    7.85248349211371    0.59279383902668
N          -5.29083023220589    8.76093687141936    0.51238651391009
C          -5.37111867363552    9.45154340616651   -0.60693196085796
C          -6.41607241503613   10.50520059017193   -0.68635894831241
O          -7.20738376457654   10.72316775817505    0.20447175363924
C          -6.41303517680009   11.29355084489532   -1.93452226010803
C          -5.58632734557843   11.07083067396271   -2.96105393143548
C          -4.57934416016715    9.99937304258709   -2.96895623639746
O          -3.89472194158539    9.75260081832591   -3.94122613570757
C          -4.47409806583574    9.23456939272958   -1.70234559296649
N          -3.50709255508085    8.34561313791220   -1.62650644940599
C          -4.02286766518276    7.02317586169129    1.68645329974699
S          -2.60530243959231    6.06199100714482    1.36446680953198
C          -4.73910224502459    6.91762198821506    2.88397633284734
C          -4.34103135466728    6.11253407024886    3.96656538895688
O          -3.20069978864388    5.40376109701898    3.82591429708720
C          -2.84752229899571    4.45376991745076    4.81229845879053
C          -5.24524451208791    6.18818959105698    5.02396936976605
O          -5.12114329102833    5.52186475490892    6.21615044959901
C          -4.60892909011948    6.29749418759719    7.29193214524650
C          -6.36380320332476    7.00447561862294    4.73405386521208
S          -6.24626536494153    7.72640143562992    3.15266449183319
C          -7.40821421147261    7.13978014517027    5.66180870581725
C          -8.59052825952216    7.82477612106687    5.55613832699418
C          -9.61678877883466    7.92277820986089    6.57335197283664
C          -9.49492949153990    7.59185339777927    7.89981249990338
C         -10.53606530803583    7.71399678669180    8.84255182874515
N         -11.34365977686315    7.78064484974506    9.65611626926053
C          -8.30967397722488    7.14036604641307    8.51407607855169
N          -7.37110782946094    6.80576568805466    9.08662709626258
C         -10.79368660276039    8.52281116094981    5.95267266871757
C         -10.46839654110334    8.87184116332002    4.60969981342010
C          -9.08079492308204    8.47257061166683    4.33116581933593
O          -8.47408033443032    8.61521836142112    3.28603686795300
C         -11.36883536079883    9.47141957699975    3.77837274538211
C         -12.66887832907251    9.74741290853673    4.25985306043203
C         -13.00708677734038    9.39242704155164    5.59758600833210
C         -12.04842583658047    8.77817985188136    6.43734828802652
C         -14.30873442044595    9.66579802055898    6.06371577846571
C         -15.23340039729290   10.26227457267452    5.24975991969136
C         -14.89887010717417   10.61274735942703    3.93361095190460
C         -13.64345612554822   10.36122943787848    3.44934954363301
H          -0.49449180378189    7.69572269664495   -9.60235429681056
H          -2.60282979357471   10.58739167022931   -6.12317998562392
H          -3.90489850935464   11.70079334152684   -7.85939350939534
H          -4.53829047621534   11.96596418668434  -10.22678764527475
H          -3.49677352214585   10.55350777045768  -11.95487964787846
H          -1.81777246215341    8.86382274786083  -11.33043853221709
H           1.12950841788876    5.70266027061190   -4.89165218909860
H           2.89607445817996    3.39545956175131   -1.99509709683110
H           1.37362425106207    3.34373661729542   -1.06326720994370
H           2.62129650342108    4.55691665769575   -0.67679550851399
H           0.11991123101992    6.79934846147703    1.30046435860692
H           1.68767638765135    6.23959324903482    0.68121597907392
H           0.87464107980814    5.34069912626838    1.99456486801016
H          -7.14883346519191   12.08594367139517   -1.96946241859699
H          -5.62401202375699   11.67467320864178   -3.85743353318755
H          -2.04519988447901    3.86411217416563    4.37162827340279
H          -3.69128095631019    3.80944188993605    5.06401273578879
H          -2.48304605081923    4.94226957538040    5.71942229868745
H          -3.56281237012337    6.57117668107342    7.11493166576677
H          -4.68294330807831    5.66542547250479    8.17353301577403
H          -5.19162696498550    7.20729148231334    7.45223605267454
H          -7.24828361215234    6.57213302933743    6.57139619328471
H         -11.09153953034342    9.73138557533246    2.76771019295445
H         -12.33666070194004    8.51981524315608    7.44402097316902
H         -14.56148248309897    9.39552195498563    7.07854261346626
H         -16.22796399790330   10.46742720455524    5.61661946193152
H         -15.64050268715723   11.08276851500309    3.30512180123737
H         -13.37929027185551   10.62871733686994    2.43675099586948
