73
 SCF done       -167.183713882930          0.000462766227
C          -0.88360305857416    0.46038733086104   -4.36537588059085
C          -1.12341960885856    0.68672409925348   -3.02264158303362
C          -1.63373299744430   -0.32477146350130   -2.23188120644067
F          -1.82422971605051   -0.05293076154778   -0.92743868011899
C          -1.93081011180269   -1.59859834702747   -2.73550167042478
C          -1.67281878294181   -1.81170028021167   -4.09351874321851
C          -1.16262755330590   -0.79675150681553   -4.87498089561227
F          -0.93317801380732   -1.03933838595387   -6.17814732089108
C          -2.47339778317056   -2.65997232244228   -1.91813330090016
C          -3.07148711203805   -2.58243708627176   -0.67903776995277
C          -3.48526694644199   -3.83442154309797   -0.21426169255260
C          -3.19032590956959   -4.87645721213058   -1.10972647389428
S          -2.41832046175342   -4.31335928062363   -2.52013650988877
C          -3.64245288296862   -6.10209608409398   -0.55808022174159
C          -4.22692552370777   -5.82642483835366    0.69418662030407
C          -4.14978590186068   -4.39530068621292    0.94922875731457
C          -4.61480612572321   -3.73068210343688    2.04561422443755
C          -5.24675350140284   -4.39845237412504    3.11645571609656
N          -5.76186843457050   -4.93084515904027    3.99178885318886
C          -4.50686739879105   -2.33076945591530    2.18701241498434
N          -4.43349756446636   -1.19329294827087    2.31014763108860
C          -4.71333394756238   -6.96416416925144    1.32251687288673
C          -4.50563511149756   -8.10917616470492    0.56256628497473
S          -3.69050777590535   -7.76371210958421   -0.95349988295776
C          -4.88997589012360   -9.43371995005800    0.90246684945841
C          -4.62303191265844  -10.52756100982510    0.05137724994737
C          -5.01767708606531  -11.86898361540396    0.37180568838164
N          -4.72798708460940  -12.86373696193643   -0.49030741695475
C          -4.10119969997736  -12.59889769151430   -1.59044572876614
C          -3.71221405739275  -11.27165308369646   -1.90804326238917
N          -3.97286836029757  -10.29119637575818   -1.10547601442074
F          -3.06881231219749  -10.99779114475671   -3.03895689456798
F          -3.83272317019255  -13.60797434317664   -2.41359334217577
C          -5.70582096399704  -12.19519708592116    1.56024989242358
C          -5.96953892396295  -11.10513466827229    2.42434894586410
C          -5.56894890342468   -9.75371847668066    2.10309205299614
N          -5.92449004557975   -8.89998758174616    3.06438434253728
S          -6.67312529608505   -9.69251662832723    4.23771007790324
N          -6.59402111835106  -11.16037916525979    3.60176407959082
C          -6.10323104636407  -13.52708334337132    1.85323954757966
C          -6.79682568070248  -13.95981927380585    2.97744455405295
C          -7.03164405760318  -15.32755858962247    2.95037278333255
C          -6.51095881247499  -15.94667179097751    1.79670217445944
S          -5.73782846992527  -14.84148071048346    0.74854098067212
C          -6.80268221031902  -17.33182855710158    1.87273596604492
C          -7.50322856942861  -17.58873377072152    3.06337813859886
C          -7.66886132246195  -16.33767103965897    3.78339218022633
C          -8.28353506560310  -16.14183606522012    4.98503075746745
C          -8.85848560623839  -17.19743601582931    5.72446545794800
N          -9.32391606216916  -18.04703251490341    6.33754755224143
C          -8.38254887713387  -14.86525047877727    5.57875086252240
N          -8.46837372211442  -13.83338443641954    6.07132618903919
C          -7.83742881673180  -18.93775302221094    3.21807887397099
C          -7.39331327161741  -19.70721149573682    2.16439438894288
S          -6.54839773499086  -18.74464711414996    0.95657086010319
C          -7.52438482854951  -21.13096039118521    1.95310640607518
C          -6.74118252157060  -21.77761949915860    0.99132773605375
C          -6.86162747297204  -23.13624875710507    0.79038336583109
F          -6.08703247696177  -23.72153710261571   -0.14086137043863
C          -7.74766909881365  -23.91544205895212    1.51543136255144
C          -8.53612469893914  -23.29230204942203    2.46505852732137
C          -8.42258776112267  -21.93098703209446    2.67256356935429
F          -9.23198594301509  -21.37666684908358    3.59417078878530
H          -0.48871145326309    1.23147081240726   -5.00577030274236
H          -0.91603286132498    1.64424064624632   -2.57246365791913
H          -1.87896325129519   -2.77081106413509   -4.54271314289385
H          -3.21402324037077   -1.66439648708752   -0.14044838842946
H          -5.19925199346395   -6.99757630753925    2.27985935769425
H          -7.09877409133977  -13.28262630540175    3.75465525863770
H          -8.36790040648521  -19.33233927415828    4.06437081231497
H          -6.03002508408162  -21.21876430545578    0.40303312593901
H          -7.81373490597840  -24.97536001025779    1.33424169550767
H          -9.24813153506143  -23.85012511089539    3.05191152780138
