79
 SCF done       -157.541889739145          0.000303326363
C          -2.60001256885980    2.21402929715747    2.22939022823762
C          -3.14942046077367    1.35922124683763    3.16747722355588
C          -3.31227433847270    0.02136260788751    2.86814862537598
F          -3.85045526923306   -0.76554686577080    3.82343425120400
C          -2.93932541713475   -0.53846714951288    1.63765483974862
C          -2.38987211234025    0.34598527662986    0.70012626741800
C          -2.23174864880017    1.68032674744568    1.00611427724457
F          -1.69941673211304    2.49406782263983    0.07230022439713
C          -3.09686067667766   -1.93922514275234    1.33125612497139
C          -2.59615945497181   -2.60883658780742    0.22574371906689
C          -2.92486267332478   -3.95687508606560    0.22431458015865
C          -3.68795679365294   -4.32621975267075    1.33279442831904
S          -3.99261220462497   -3.01232906368650    2.38582035208002
C          -3.96858008964735   -5.70951182102945    1.26356393845000
C          -3.37973279916551   -6.22822222798651    0.10483572499470
C          -2.66381964587208   -5.14629942438508   -0.66966197062244
C          -1.16691729784961   -5.44432898062542   -0.78633771665361
C          -3.28639805244956   -4.95289046416099   -2.05519587012191
C          -3.58658118756691   -7.58611963230991   -0.04176451970446
C          -4.33749105620792   -8.12683128251444    0.99907415951353
S          -4.79481351670356   -6.90304811987570    2.17555197116306
C          -4.74073296704889   -9.47403079709069    1.20279523085305
C          -4.39464114172249  -10.56022463195151    0.36025219007066
C          -4.82822247596921  -11.91257055923974    0.62004682002330
N          -4.45329573615070  -12.89016516529057   -0.23128049243090
C          -3.71835350644213  -12.61224440045092   -1.25748063265879
C          -3.29300647432438  -11.28985417098000   -1.51065054888467
N          -3.62766308769221  -10.32069718701227   -0.72368294674854
F          -2.53285475826778  -10.98877486779351   -2.56777765076501
F          -3.37977530685517  -13.62307356509115   -2.06324348093174
C          -5.63796663604897  -12.25245145682058    1.73244508423861
C          -5.98214809539187  -11.16552304850859    2.56804029717941
C          -5.54335952230449   -9.81972153454024    2.31393534147126
N          -5.99077991285143   -8.97354933296736    3.24064181881482
S          -6.86945684825722   -9.77697623711107    4.31843635325788
N          -6.72997169870999  -11.23957498787858    3.66821132407728
C          -6.10371900284452  -13.56210696586399    2.02887875202250
C          -5.84479004188618  -14.75570583901137    1.36023901483210
C          -6.49057757071174  -15.83466778569385    1.93289001974675
C          -7.25595150442412  -15.47970625435533    3.04942441810814
S          -7.17009462349938  -13.80467165939586    3.40510183515021
C          -7.88644033207760  -16.64115349100754    3.54923870526996
C          -7.52863043677308  -17.73555942604931    2.76401784147358
C          -6.59194256971920  -17.31657259202180    1.65610534127959
C          -5.22884019327533  -18.00138370520590    1.78827771257305
C          -7.20046082565090  -17.58635110330758    0.27754689967350
C          -8.12055882991188  -18.92158765794264    3.18298769743912
C          -8.93685533255670  -18.74729105100535    4.28507831142281
S          -8.96190154906426  -17.07035518888650    4.81140018164314
C          -9.73073009897787  -19.71905056015532    4.99685418541610
C         -10.62236071927303  -19.30768475812543    5.99525763758748
C         -11.39094142713587  -20.22741773898584    6.67462110204944
F         -12.23794729751011  -19.78586026082112    7.62447281933414
C         -11.32553354402523  -21.58563255134792    6.41334698630944
C         -10.44770769315208  -22.01406296390902    5.43453621093511
C          -9.67359125277852  -21.09854616104495    4.74950495234477
F          -8.83265529369941  -21.59065733415187    3.81437925646043
H          -2.46060674374503    3.26279942897617    2.43170653449939
H          -3.45592085226700    1.71760937963496    4.13713139519228
H          -2.09201034475532   -0.00029266823009   -0.27495631335107
H          -2.00397670229193   -2.13513719557609   -0.53490697627659
H          -0.73017645848240   -5.57587215585906    0.20092759522184
H          -0.65859864339791   -4.62372447779343   -1.28667185737124
H          -1.01377872515729   -6.35500755211569   -1.35950902613230
H          -4.34872462890717   -4.73784973969825   -1.96521802801342
H          -3.16226383372636   -5.85604794218157   -2.64702816676835
H          -2.80494266605817   -4.12540801957931   -2.57057591333904
H          -3.22325934855358   -8.18886391614617   -0.85077913035922
H          -5.21018333654473  -14.79535595944774    0.49678137063799
H          -4.80131454116738  -17.80631388808137    2.76916289035177
H          -4.54845171346869  -17.62331895928316    1.02961862129016
H          -5.33675831623217  -19.07579282555674    1.66202025349505
H          -8.16867089464913  -17.09868596522380    0.18986785783321
H          -7.33308528293242  -18.65535485263127    0.13044736102481
H          -6.54475115152247  -17.20200630802016   -0.49939524755733
H          -7.96968707484895  -19.86785872628214    2.69987180594407
H         -10.71668637750241  -18.26063812729316    6.23706588240550
H         -11.94258444779851  -22.27769001254076    6.96165843483132
H         -10.35181861255627  -23.06043392349640    5.19200120903469
