58
 SCF done       -144.101810520104          0.000491751129
O           0.56133999238828   -3.24112196866534   -7.69577606648526
N           1.16959539656337   -2.28723309463234   -8.40136780773442
C           2.17477511909753   -1.83387361268665   -7.69094564987487
C           3.03642234372202   -0.81067901306996   -8.14545550499496
N           3.74810923019956    0.01546652173495   -8.48889777359395
C           2.24514391170218   -2.52128722698678   -6.43909932332622
C           1.18061840145900   -3.40432342680641   -6.51875060898701
C           0.72347290867095   -4.36124003893143   -5.59123565311220
N           0.34925270069268   -5.13995031851035   -4.84163294608568
C           3.19628991982166   -2.36257805502568   -5.32954437041880
O           3.16428679628963   -3.00396723179418   -4.31316570495593
O           4.08592835035333   -1.40413544370985   -5.63912498513992
C           5.10695204049499   -1.04597467408472   -4.81126906582964
C           5.45376336298416   -1.48706826138969   -3.56758347733567
C           6.60539870898829   -0.81824688139647   -3.11778599116757
C           7.11006495188647    0.11621297664745   -4.02434150246427
S           6.15818960616544    0.18760572438710   -5.46554594328762
C           8.26218847364934    0.75126028879655   -3.54411559116885
C           8.62710811991257    0.29245263383136   -2.27184319243866
S           7.54299552141297   -0.92377157252636   -1.65954741380021
C           9.78022740288290    0.89543583297928   -1.76799189065233
C          10.29701699284073    1.81631596684014   -2.65474447431285
S           9.35579135714413    1.94834107848695   -4.12424441512653
C          11.46842885668224    2.59282311647964   -2.46364687705076
N          12.22208547847756    2.50518621465193   -1.40653367741288
C          13.25975175955105    3.33596914122321   -1.49790610313776
C          13.34132842687252    4.11665832003364   -2.66316355176616
S          12.01337946309508    3.76224983017389   -3.69267018197487
N          14.38393863077175    4.94143098911095   -2.75578879569860
C          15.14371780439172    4.84880138868353   -1.70701868531856
S          14.59415859751203    3.68268094739059   -0.47133089501825
C          16.33294651737999    5.59432944240572   -1.52057871977855
C          17.21043575791908    5.53781265957290   -0.45984225829327
C          18.27929827028014    6.41777590297589   -0.63530620782586
C          18.21504301053223    7.14738864937071   -1.82966217777842
S          16.81705234973984    6.74062927874225   -2.75157522749418
C          19.30400927913129    8.01776890362010   -1.97057959887700
C          20.18632645785927    7.94368582885535   -0.89142155309285
S          19.68484315851579    6.80141944404097    0.31679985289322
C          21.29439515346972    8.80251203715636   -0.99655898085520
C          21.22991514612023    9.51630353331470   -2.15724242860687
S          19.83350602634349    9.16639621899323   -3.14900482521969
O          22.06277309456530   10.46141285892088   -2.67921362325168
C          23.23606003809254   10.79341388276167   -2.10715648015722
O          23.69501503391226   10.32195812781700   -1.10252223212209
C          23.88471361705782   11.84004984231385   -2.91013658440353
C          25.17858003726207   12.41392656679686   -2.70965785245553
N          25.41667606615950   13.32438030354634   -3.62357755306520
O          24.35339511319509   13.39522332569701   -4.42497276323652
C          23.42100709301753   12.51951621401651   -4.02500676389586
C          22.19408604582910   12.40396023238681   -4.70683512407892
N          21.19023705575489   12.29836745091376   -5.24585833160485
C          26.10734284912730   12.08231406533340   -1.69755730323939
N          26.85656940817855   11.80751983879810   -0.87943010347906
H           4.92111079706753   -2.23976514983400   -3.01781815527872
H          10.23258746518501    0.68813257948802   -0.81721407820759
H          17.07642731542212    4.89102272010970    0.38744302079062
H          22.08198721625435    8.88664509066851   -0.27192582772429
