75
 SCF done       -186.864965033397          0.000543262684
O          16.23748587777514    5.02520044957359    9.91428639338790
N          15.36431773101774    6.01288250297118   10.11337063487684
C          14.64880676928318    6.15128271592548    9.02331236552887
C          13.62261612629694    7.11409792890755    8.89359013388767
N          12.78991683549272    7.88843713995807    8.77941206183368
C          15.06511333258306    5.20285518321465    8.03693311173434
C          16.08436000945577    4.51979357014378    8.68322036611248
C          16.89038309703635    3.45994981062504    8.22565497865300
N          17.53701960026994    2.60132708329270    7.83313653938803
C          14.52366573478363    5.02401875945372    6.69120461537834
O          13.63289783454237    5.68123101776000    6.20871165163174
O          15.14718831938396    4.02253797075034    6.04992219751037
C          14.76540676111780    3.70333694536612    4.78880140097561
C          15.33235901827027    2.68475896242624    4.06450125217435
C          14.72932217572216    2.58690522294504    2.80466267920854
C          13.71784943060399    3.54143517612361    2.60804425405716
S          13.49141710365788    4.56681515296693    3.95885831667230
C          13.16383467531994    3.35535022661014    1.31581614431975
C          13.82851889078522    2.27775448240712    0.69685325278303
C          14.83738331994340    1.76262857237003    1.61205340573730
C          15.69876147062232    0.72825140796541    1.39844715948166
C          16.63664938209004    0.31839710045488    2.37060669246559
N          17.40093700306833   -0.02023544123160    3.15505801232219
C          15.71940518246767   -0.00801261508646    0.19364142746110
N          15.75407093421633   -0.61751933821470   -0.77629491828734
C          13.34540276643874    2.00514829589888   -0.57636526051252
C          12.31623389042025    2.86608771265880   -0.93987300426541
S          11.95401229970646    4.03469183116651    0.32544195201543
C          11.56145342565926    2.89319311114650   -2.14548828201604
C          11.72110915013990    1.98361971815614   -3.21893754913675
C          10.89887105757553    2.05928614421566   -4.39452309693830
N          11.07997383068283    1.16737148442848   -5.39027381506935
C          11.98898872351736    0.25521520391293   -5.28230781631527
C          12.80261703287751    0.18058399239998   -4.12017296182801
N          12.65896993488957    1.01549199251892   -3.14406190519966
F          13.73708838267984   -0.75406708056886   -4.00586253021759
F          12.13572496419337   -0.60162196875367   -6.28600808633584
C           9.88845457652091    3.02972817215346   -4.57838052585131
C           9.73721743513416    3.94950827791732   -3.51573700901845
C          10.55711065565468    3.87028519705982   -2.33320017985123
N          10.24557158789923    4.82443953939419   -1.45460910430982
S           9.05538144175960    5.72529222858533   -2.04531256006862
N           8.86875623737448    4.95970617917552   -3.43768679669211
C           9.08262241424555    3.06067287889989   -5.74769263871023
C           8.08235092605681    3.98231105671014   -6.03701852324869
C           7.47321449123004    3.72178699061200   -7.25627578161143
C           8.00869922047370    2.59028797523154   -7.90242193310990
S           9.26897415121240    1.85843349124510   -7.01148216386658
C           7.31033706913968    2.41281191760099   -9.12525020948905
C           6.34555887880503    3.42439204609045   -9.25231118465505
C           6.41209314439661    4.28170289210499   -8.08247296663086
C           5.64634941367042    5.37468466913899   -7.80268878771010
C           5.81508724975863    6.12522142830772   -6.61896033625668
N           5.94298407591953    6.74279840098894   -5.66145808517707
C           4.62836320478212    5.83386568689165   -8.66642763400759
N           3.79286598516430    6.21599466218732   -9.35177653752814
C           5.59737614186995    3.33027037078375  -10.43748529370189
C           6.00719423369215    2.25239758572964  -11.17376327240553
S           7.31008075242303    1.33197845409126  -10.45130119769523
O           5.57314074120892    1.75787419452723  -12.36521906733415
C           4.69716322479747    2.41138057733727  -13.15354194549428
O           4.20663044395379    3.48422867177954  -12.93001527757576
C           4.42594567978901    1.60174239123561  -14.34940652554707
C           4.88176465069484    0.28877547955703  -14.68593342214315
N           4.40071628434099   -0.07379610555017  -15.85099441410106
O           3.64833030711605    0.92385690014627  -16.31577561850983
C           3.64192316858280    1.93858597005191  -15.44092961614751
C           2.91603389772529    3.11593751811341  -15.71049079949665
N           2.32831736459087    4.07080641258143  -15.93646276768774
C           5.72176880168281   -0.53824238621186  -13.90756173494434
N           6.39985689630960   -1.18402351817812  -13.25143958491126
H          16.12535965475741    2.06714433846995    4.44320340081098
H          13.69887570356819    1.22907264741414   -1.22844475526103
H           7.83831105713322    4.78693044381235   -5.36840970031490
H           4.81368676189380    4.00048593976698  -10.74067722324053
