77
 SCF done       -187.440132567330          0.000511328749
O          18.58020012115215  -10.76424480043267   -2.43197123750252
N          18.98288089702240  -10.39585393876382   -1.21551693095282
C          18.49882545238093   -9.20242429552317   -0.96966225274450
C          18.72369833468269   -8.51102671895156    0.24146396000520
N          18.88124391617817   -7.92713600052265    1.21144093868487
C          17.72844090733973   -8.74393248345075   -2.08406801054319
C          17.82771549561231   -9.80030543654444   -2.97707802194114
C          17.27402544787333   -9.95367945619943   -4.26341306405812
N          16.82230052823089  -10.08048556416633   -5.30647096749257
C          16.99227874992303   -7.49448477126639   -2.26251263005212
O          16.33432826366034   -7.21639982183426   -3.23728345973366
O          17.12820937148290   -6.69091141229090   -1.19774283977929
C          16.46197256308028   -5.51196503776398   -1.17001498654903
C          16.49384769861419   -4.65106042521887   -0.10067601325567
C          15.67611219929300   -3.54126927248575   -0.34414833722794
C          15.04962890730365   -3.59171398133336   -1.60167488594066
S          15.45322177118351   -4.99034962985388   -2.49950281451223
C          14.19352047215961   -2.46980176896189   -1.72876862551935
C          14.28069688863123   -1.70826809565974   -0.54511904699573
C          15.22639461382085   -2.35029915730731    0.35719523582579
C          15.58748972256274   -1.93054425613883    1.60300825583409
C          16.51211047188514   -2.63909010503225    2.40015112715527
N          17.26149209416974   -3.20778996179454    3.05501262454799
C          15.05375042893861   -0.76019437221141    2.18467167063902
N          14.62014849055003    0.18408652370341    2.66913743162188
C          13.41655560017638   -0.62270248417598   -0.53953583466881
C          12.66513566842691   -0.55326887386762   -1.70806794272109
S          13.06962492396893   -1.83200295009632   -2.84429884814721
C          11.59012675679279    0.32939280368040   -1.97920625533066
C          10.85912930142574    0.23259280998057   -3.18534911607744
C           9.61929475236944    0.93389822918486   -3.38995818417093
N           8.95207292665539    0.77483895400705   -4.53767433543610
C           9.43444181491014   -0.00667037814807   -5.47335078324467
C          10.66753270593900   -0.70738961413838   -5.26849172272190
N          11.32831213437742   -0.57242869670839   -4.14413877914709
C          11.19114735569563   -1.54681806443270   -6.28292732708852
N          11.59020163336753   -2.21563512826080   -7.12236664887349
C           8.72869571775747   -0.14213895893951   -6.69464258300580
N           8.18385308582069   -0.26885350946415   -7.69379115433015
C           9.05099557287891    1.76578382795563   -2.39836961523666
C           9.85859311085942    1.98704266683744   -1.25756373943921
C          11.10467324919781    1.28159496376876   -1.05161035762905
N          11.67125079133550    1.62244309261788    0.10588479539916
S          10.75901342013787    2.70955911004913    0.85021051247562
N           9.58666137205594    2.80220252518776   -0.23840961213856
C           7.72179868549289    2.24137897511474   -2.52309839105061
C           7.01809978978357    3.01085144053547   -1.60269069722382
C           5.68582397351698    3.15578336098600   -1.96250351079015
C           5.37027653354648    2.49606235404850   -3.16825018733752
S           6.72174456613136    1.72908078726999   -3.87498693971720
C           3.97820774658884    2.62903620144858   -3.39869684325918
C           3.41582531770094    3.37039141574556   -2.34517262557674
C           4.47009605572865    3.74249403663944   -1.41666857243156
C           4.35029828303197    4.46677655429441   -0.26782652165619
C           5.45581166218010    4.74047792776309    0.56623460404906
N           6.34598931251145    4.96150973193167    1.25400644955676
C           3.11349741954825    4.98830185383076    0.16846135426332
N           2.11282376674951    5.41583991116405    0.52870801190450
C           2.02462162244580    3.48833305382043   -2.44670008682851
C           1.56924668064708    2.83222493311461   -3.56350074796539
S           2.81682748651125    2.07338467764898   -4.52492476306062
O           0.25664061411089    2.73942042756343   -3.88908319448693
C          -0.10066723483375    2.02531011514630   -4.96989039568451
O           0.68663739664179    1.49119268322687   -5.71267248788370
C          -1.55449227373326    1.97394754757349   -5.10892408418028
C          -2.30768139063284    1.35206519922714   -6.15389110199921
N          -3.59181491782707    1.49352455970251   -5.92996316865809
O          -3.74297887996686    2.17249156283002   -4.79249527959912
C          -2.54446795477718    2.47410372693330   -4.27661400652166
C          -2.42850372364498    3.17931729960268   -3.06350785312378
N          -2.30902271637608    3.74451894149472   -2.07584558382999
C          -1.79329113326231    0.67267470870481   -7.28138411760461
N          -1.36814545683597    0.12460738880166   -8.18946337832876
H          17.06746184439445   -4.84075619616317    0.78757927536425
H          13.29476080337175    0.08794910491250    0.25723883532797
H           7.48394536406342    3.40701859291747   -0.71910091718366
H           1.37478504462514    3.99827101260323   -1.76006266088892
