96
 SCF done       -190.107208975006          0.000661164115
C           4.06000991096534    0.32614466216852    1.60980643024432
N           5.17458852122180   -0.47814057263924    1.19092542805524
C           6.45491246361848   -0.00394103387847    1.09796502339483
O           6.76479755526206    1.12900830773731    1.40030675291163
C           7.31962186306997   -1.15461361525243    0.65605116223339
C           8.68056501537765   -1.09840902785471    0.52923357851136
C           9.58580657482424   -2.29579572715515    0.52016918849270
O           9.32015562794984   -3.47577989272027    0.61159386748521
N          10.87361872037297   -1.82430078002939    0.46693034339777
C          12.03201176816386   -2.67524699454102    0.46060042672881
C          10.89083190087545   -0.45093962314988    0.40222588131567
C          12.00067856301116    0.36204269250782    0.28621286619555
C          11.76629547552072    1.73023595035039    0.20293928295596
O          12.75756377413772    2.69329014954121    0.09833498351778
C          14.06722545124994    2.46221411578694    0.06583925880167
O          14.63820189430331    1.40243945742580    0.10598221346124
C          14.78252413876165    3.75209772649244   -0.03186171471130
C          14.26371712479747    5.08139964492550   -0.10901857090234
C          12.90265183152544    5.45815993839479   -0.11473375809158
N          11.79409950017116    5.73774598204375   -0.12110530374717
N          15.24506132748874    5.94950819314356   -0.18039872613093
O          16.39545917207372    5.27491864387879   -0.15439028110868
C          16.15035528597709    3.95944339506433   -0.06636414542706
C          17.20911604143301    3.03105503327142   -0.02155432025173
N          18.07080854153006    2.27952243293039    0.01153003866338
C          10.47207939602929    2.24850991086072    0.21487929703260
C           9.37443750888875    1.41709386300049    0.33523533259245
C           9.56852923334607    0.04518892939698    0.45276381377895
C           6.40965275442426   -2.26570825621142    0.49514492979237
C           6.54320180497203   -3.56950623214764    0.02636840865250
C           5.42959450832356   -4.38160503894354   -0.05483874376981
C           4.15304302094325   -3.93641675044878    0.31054381331519
C           2.98174330167658   -4.78234267597133    0.26765404613405
C           2.98287441918432   -6.12448281349274    0.18775910574667
C           1.81200412548707   -6.97210241050925    0.18672361261340
C           0.52162248873391   -6.49025757158771   -0.06599972818822
C          -0.59027037849152   -7.30773776853049   -0.02488803970423
C          -0.44058059246885   -8.65588179462885    0.28763861511621
C           0.87005524338619   -9.14801597957448    0.49296339203263
C           1.98072262154647   -8.34155589329642    0.44558010958877
N           0.81892933350671  -10.50920689564724    0.71600387979257
C           1.94938830428292  -11.35504820560075    0.98279333886727
C          -0.46656086301331  -10.97099556833463    0.63453147436223
O          -0.76513932894935  -12.13182728047645    0.82069187906327
C          -1.34721963320599   -9.77861487256598    0.37006288449860
C          -2.71339647960877   -9.82039273712537    0.31126412719577
C          -3.61044222100890   -8.62804773272114    0.47780576364973
O          -3.33315261948016   -7.46439212962862    0.67809427400185
N          -4.90225663357872   -9.09023036410115    0.44494640221593
C          -6.05382987238925   -8.24218087534387    0.58974359155639
C          -4.93184380292766  -10.44913018088036    0.23905690788262
C          -6.05222927088697  -11.24466893217029    0.10351578647014
C          -5.83309634730327  -12.59744832003237   -0.13163689552591
O          -6.83603294177755  -13.54502828219930   -0.27604364944634
C          -8.14514450225490  -13.30961798990299   -0.18906788493532
O          -8.69968093503818  -12.26038017681811    0.00848085549619
C          -8.87249451431124  -14.58249626787983   -0.37857534273224
C         -10.28519866975190  -14.79204444252981   -0.34910521774102
C         -11.28369340747786  -13.81543638369470   -0.13528886067553
N         -12.08860796133208  -13.02345420949451    0.04106750168264
N         -10.56106011850216  -16.05876615006907   -0.55340086904519
O          -9.40956505934747  -16.71115680147890   -0.71946467618515
C          -8.38259929992142  -15.85433764887189   -0.61999184978680
C          -7.05286060552010  -16.29569283551118   -0.76009536073070
N          -5.96667428850399  -16.63769258834079   -0.87276548232412
C          -4.54378698094088  -13.11476595878156   -0.24754111778669
C          -3.43510916627343  -12.30142896344135   -0.10568826042221
C          -3.61211917231277  -10.94882817998342    0.16367699700732
C           3.99858151503182   -2.60626129736553    0.73214427314851
C           5.11112493661025   -1.80556816616725    0.81810727231785
H           4.44492732456176    1.31620100830068    1.85165898747639
H           3.58770609753644   -0.10580362647131    2.49413968873908
H           3.32168992475802    0.40855262796870    0.80936551543035
H          11.68095772648764   -3.70346883668001    0.53993371463856
H          12.68005145214499   -2.44538053011753    1.30794152691057
H          12.59511866436412   -2.55228846481612   -0.46660449919795
H          12.99608839134627   -0.04600911610449    0.25959962967413
H          10.34936879628177    3.31664299774451    0.13409320470685
H           8.38670192143858    1.84110591639925    0.35973004370950
H           7.50662348681240   -3.95555426063262   -0.25485976771138
H           5.55208079301561   -5.38696724107873   -0.42485708207081
H           2.03899332494970   -4.25964356776785    0.36010113621980
H           3.92727490257883   -6.65211013471803    0.17277167041090
H           0.38604510973939   -5.44968200840341   -0.31397860587034
H          -1.56390894844000   -6.89328382753482   -0.21574578701262
H           2.96820621267006   -8.74276507457360    0.61611551009171
H           2.64358510325873  -11.34805237120698    0.13975209964127
H           1.57197128170829  -12.36584723593046    1.13349756184871
H           2.47062307165956  -11.02398926215125    1.88297811170778
H          -5.69236088710727   -7.22793211462076    0.75522514275985
H          -6.65642247978439   -8.55770791534866    1.44299824770287
H          -6.66706579567138   -8.26840547816499   -0.31308446870531
H          -7.04419185730951  -10.83403309629178    0.17619633092011
H          -4.43227892268965  -14.16895915872768   -0.44412266329224
H          -2.45066263420611  -12.72691052868438   -0.18168222248164
H           3.02080104631991   -2.23124683906119    0.99383736107610
