75
 SCF done       -159.472592330158          0.000708247409
C          -1.33987175654717    5.21996503459643   -6.29503614297000
C          -0.60527295433800    4.74231698319203   -5.24701796511953
C          -0.90379505248534    5.05591445664791   -3.90603695216159
C          -1.95684336220733    5.86786906235085   -3.53397575286432
C          -2.74210045123581    6.38222967100019   -4.60476076583607
C          -2.42717619567012    6.05371125825974   -5.97543364519485
N          -3.31652708340136    6.66660513795170   -6.73552594782027
O          -4.12125138972866    7.32458713294812   -5.90858447463032
N          -3.79833508349763    7.17056397194439   -4.62788397160700
C          -2.26202993652016    6.19058626160556   -2.17275066294378
C          -3.28199493030094    6.99826263335774   -1.70908776259966
C          -3.27976916473191    7.09635906439535   -0.31733062732666
C          -2.24655461778831    6.35270598709950    0.28451383426505
S          -1.28376377578678    5.53802593228965   -0.86289331289538
C          -2.31573098312065    6.51229132114760    1.68873766823970
C          -3.39861344177130    7.36769428568848    1.97651225023377
C          -4.04258005925259    7.75500156755468    0.72968101591934
C          -5.13787012602013    8.55409578504323    0.58455374884989
C          -5.79859316211988    9.13103551691407    1.69030471334002
N          -6.34502221534949    9.60563450909364    2.57973403069862
C          -5.69701698148332    8.85791624323301   -0.67535822391235
N          -6.16703580362116    9.11451926806538   -1.68900241005557
C          -3.55554902868485    7.59690973081979    3.33617772131175
C          -2.60682950633741    6.91776629100188    4.09106612268065
S          -1.50210794244794    5.98074010046709    3.10016396375216
C          -2.48134703563140    6.91524143675185    5.50301082082794
C          -1.49412169230747    6.12765418941914    6.14066412274900
C          -1.36099715790147    6.07311000916675    7.56442847527044
N          -0.41168703792827    5.29600093405587    8.11274381885943
C           0.37569168856465    4.60558041605016    7.33434432338668
C           0.24681088551341    4.66187833638649    5.93293093922360
N          -0.66569714518377    5.40436584015733    5.36848966994063
C          -2.20115022866844    6.81040938901290    8.43165538293976
C          -3.17454193285285    7.61749959060724    7.80118393568323
C          -3.31404366629591    7.66671280296203    6.36217619799961
N          -4.29868723884917    8.48991417074591    5.99613886071110
S          -4.97379225381961    9.12990027528388    7.30021197292718
N          -4.06585780200975    8.40669669959562    8.40437563703583
C          -2.05668112880423    6.71219097235430    9.83839663366862
C          -2.80392610199854    7.37447532408433   10.80501823807018
C          -2.41224134287130    7.02945489118255   12.09087167187636
C          -1.35649000700914    6.09547896408997   12.10764245183939
S          -0.84433222855824    5.65086575725686   10.53385632823255
C          -1.04947688928691    5.80758327856662   13.45849587076552
C          -1.90289493657744    6.55151105172829   14.29580697919173
C          -2.78497227824434    7.34985988179723   13.46118243171497
C          -3.75424907089996    8.21864934044297   13.86721526903096
C          -4.03555916423214    8.46394943926834   15.22844363005567
N          -4.27672081228226    8.67934851367922   16.32808360157213
C          -4.54690815982526    8.94233469208419   12.95062534387130
N          -5.19867223235682    9.53598087899798   12.21730342102431
C          -1.67477038333039    6.31745311200149   15.65220125427329
C          -0.65759333652015    5.40558230776938   15.85623172519377
S           0.03071175095133    4.82839522671069   14.34256633387364
C          -0.15794169456615    4.92379872878871   17.10864142560106
C           0.88292621542316    4.02297684820029   17.21703544760797
C           1.36987792972132    3.54870303166013   18.45134126784026
C           0.84617443039061    3.94422430066443   19.64942648911805
C          -0.21885671982858    4.86230052833692   19.60038208667637
C          -0.72498043563225    5.35634956843947   18.34121114689088
N          -1.70919879490083    6.18832165147647   18.61856706692689
O          -1.81308897176397    6.21536751396139   19.94395028336070
N          -0.93271625103058    5.43064934696383   20.55521471880075
H          -1.11890286272967    4.98530714370588   -7.32211810219501
H           0.24012967951887    4.09858520041577   -5.43819615732103
H          -0.27439953117702    4.63886330039319   -3.13290791108039
H          -3.97697244163006    7.47942749932460   -2.37322675010987
H          -4.30622130580230    8.21590607403370    3.79172994093966
H           1.12559212930842    3.99397796830357    7.81512001535956
H           0.89294472177658    4.09699136266314    5.27644250755533
H          -3.58681037746894    8.06254197988571   10.54446553473097
H          -2.20771747694898    6.77143952529322   16.46796141422303
H           1.35002892804284    3.66143639529547   16.31217420872793
H           2.18884546084011    2.84539316413527   18.43371149567743
H           1.21145931220932    3.58622393916753   20.59658207751993
