58
 SCF done       -123.531181909268          0.000382850722
C           3.04454096268782   -0.62398131426501    4.34552426512956
C           3.05601440538881   -0.35606699808437    3.00457196010621
C           2.87181814183613   -1.36061890724447    2.04071201299924
C           2.66694270353141   -2.68546678175233    2.37808687780254
C           2.64989662630380   -2.99400714659132    3.76941492964253
C           2.84000703011869   -1.95541291095930    4.75344841685399
N           2.80133110680969   -2.38123657556660    6.01216915457346
Se          2.52531068867535   -4.10566612440156    6.02766602913301
N           2.46769276099473   -4.20280179284298    4.27915905368240
C           2.47777014122511   -3.72321683171318    1.40016749912527
C           2.46761616120353   -3.58916449817223    0.02764420586337
C           2.25867843899559   -4.80867996198483   -0.61585400618081
C           2.10654099858234   -5.88706291388822    0.26150744597733
S           2.22443021695083   -5.37948539298166    1.90687909986215
C           1.90040771752319   -7.09400411868625   -0.41832078802765
C           1.89731666910145   -6.92572982246886   -1.80969734463981
S           2.14845295396672   -5.27171536339306   -2.29205854441501
C           1.69647123824766   -8.10862840089390   -2.51883323331476
C           1.54496174813489   -9.18571703134502   -1.67152769573188
S           1.64949069371296   -8.74320307809952    0.01979794612315
C           1.32761334138349  -10.53842376752402   -2.02386131065009
N           1.18922556304628  -11.50695978822852   -1.16960851178200
C           1.00069621024202  -12.66894522923174   -1.79453801286613
C           0.98716769391459  -12.63512864571365   -3.19750892551371
S           1.22871857054771  -11.02233571827207   -3.74156449456606
N           0.80071798857465  -13.79748285434019   -3.82242999396629
C           0.66322464606999  -14.76610777641883   -2.96815077671880
S           0.75949304787405  -14.28170868944580   -1.25039482759756
C           0.45459231022799  -16.12031623760705   -3.31998445337859
C           0.29715516760228  -17.19582218212664   -2.47171980982143
C           0.11584017127970  -18.38230484115043   -3.18009623622900
C           0.13429552943389  -18.21847940978781   -4.57188291083137
S           0.37871192323915  -16.56863398995635   -5.01129435543905
C          -0.04714552559536  -19.42977442870118   -5.25100273281882
C          -0.20274196022122  -20.50691565477369   -4.37271487175372
S          -0.12763922316282  -20.03709559238250   -2.69644450871944
C          -0.38334543492147  -21.73128373675948   -5.01558263027882
C          -0.36791350171103  -21.60223600826625   -6.38854255426840
S          -0.12758278833859  -19.94438448946135   -6.89642200932690
C          -0.52059340718929  -22.64623855777256   -7.36617475207986
C          -0.70191051407272  -23.97435698833774   -7.02820503587823
C          -0.84875617653701  -24.98517121636603   -7.99193582903475
C          -0.82186128018309  -24.72052862255306   -9.33331106141733
C          -0.63996956269453  -23.38600909125390   -9.74185105712353
C          -0.48799182787304  -22.34101767731709   -8.75795337383154
N          -0.32353949511937  -21.12990003550138   -9.26820063887772
Se         -0.35109035356635  -21.23287117736230  -11.01709339979826
N          -0.59034780996890  -22.96276307478971  -11.00104577115949
H           3.18505913048915    0.14290419944988    5.08938994161842
H           3.20950091594095    0.65700791603054    2.66378042484985
H           2.89198031882924   -1.07633059616105    1.00079535441738
H           2.60388870908202   -2.66007874419179   -0.49271487063022
H           1.66167991950425   -8.18793011750457   -3.58988817527627
H           0.31492208126173  -17.11299069956676   -1.40051345901893
H          -0.51820095953504  -22.66019562441359   -4.49453075843258
H          -0.73181183151150  -24.25641125431354   -5.98789677538674
H          -0.98552533783420  -26.00048694558694   -7.65066898377268
H          -0.93370765249806  -25.49222668700662  -10.07705513720584
