77
 SCF done       -164.352789840723          0.000626478934
C           1.61364423725932    0.22837896964788    3.80777552348221
C           2.32020896600255    0.24900004035592    2.63636079548496
C           2.45697043047332   -0.88916696542108    1.82610727892943
C           1.88786544361898   -2.10618958477956    2.15644912611116
C           1.14600705599871   -2.15682839146434    3.37199883347241
C           1.01085859082131   -0.98210235549887    4.19811044660015
N           0.29363583201026   -1.17093323353928    5.30144844913391
Se         -0.24838496125277   -2.82869658743659    5.36186362109158
N           0.53470335631969   -3.23242574208271    3.84571260007536
C           2.01781082851215   -3.27997428057181    1.33923083660968
C           2.69638570567981   -3.39740763114231    0.13907397450714
C           2.61656517242673   -4.68591614448555   -0.38493913199114
C           1.86817271670907   -5.55846096222003    0.42790376597225
S           1.26846031760328   -4.78696010220869    1.82889242679912
C           1.84495103607227   -6.83726837662275   -0.18435587046835
C           2.58255556351305   -6.76622211075483   -1.38635139004151
C           3.08897210448427   -5.41249918251228   -1.54887953335855
C           3.84730013412301   -4.93249679643108   -2.57709822977137
C           4.24741260810319   -5.74536496260826   -3.65775791897222
N           4.57512340855375   -6.40315382124555   -4.53830723402769
C           4.28108249875719   -3.59160315223716   -2.62460160915167
N           4.63435387708948   -2.50110610784724   -2.66439490243049
C           2.62365701764701   -7.97469266822580   -2.06687512413817
C           1.92216483853886   -8.96448124844249   -1.38901220587900
S           1.20073555800670   -8.39238453413729    0.10916540755246
C           1.75035623005613  -10.30583773483877   -1.76385692688130
C           1.04244139360591  -11.27153172048074   -1.04038712284960
C           1.03576752729444  -12.56747157165824   -1.66394010042605
N           0.35793737520483  -13.57947347914329   -1.11819707520487
C          -0.27366697879741  -13.33693926638777    0.01052414937002
C          -1.07399909623156  -14.44938571292501    0.58154516902213
O          -1.24644418184025  -15.49806739471559   -0.00096139201440
C          -1.66933713363978  -14.17284120643085    1.90104546554256
C          -1.59304342020855  -12.98797252897193    2.51573598157876
C          -0.89782884227505  -11.81878929942293    1.95198941176075
O          -0.87559420497350  -10.74272749023645    2.51393467706059
C          -0.22268635252748  -12.05851078703243    0.65420557703498
N           0.42483694360018  -11.04565350958592    0.11756870397786
C           1.75594442233337  -12.59043577564950   -2.86629439632995
S           2.40153661243451  -11.00931747432098   -3.20968337389348
C           1.96662444634299  -13.68786780048426   -3.71996083032071
C           1.65126868886261  -15.01841248637946   -3.46693411008861
C           2.01354394504035  -15.83943280418127   -4.52807958462353
C           2.58554445271972  -15.13295201353185   -5.60688722374497
S           2.71213721029204  -13.46112681580378   -5.29918827347368
C           2.88377333274049  -16.04317351907162   -6.64720102069270
C           2.50660727381935  -17.33235136128241   -6.22853902953160
C           1.97738221598828  -17.25403276041943   -4.87687188212765
C           1.59375182384621  -18.29548975523332   -4.08524772822758
C           1.61471218187052  -19.62686544975153   -4.55275666144135
N           1.62851441125113  -20.70899101292324   -4.93231377788044
C           1.20554122132493  -18.14025082989207   -2.73636539661883
N           0.92957294455039  -18.05464213778268   -1.62747410401700
C           2.76470584381400  -18.30332204959768   -7.19485555721130
C           3.32860531446780  -17.76653964574518   -8.33902700270155
S           3.54994327800345  -16.03261304024804   -8.22073076810456
C           3.72217229172414  -18.46149969159660   -9.53243146928643
C           3.57731991082785  -19.82771682381080   -9.69493357013432
C           3.96863387440212  -20.49024734394905  -10.86918003494986
C           4.51966703103274  -19.82656789770099  -11.93113491682904
C           4.69290872148214  -18.43380876252518  -11.82588493180546
C           4.29388874405579  -17.74420336515454  -10.62333227499680
N           4.50775491960444  -16.43692491038680  -10.64577321225483
Se          5.22503433260878  -15.99732034172140  -12.18536284416631
N           5.21071396199007  -17.64420509332552  -12.76159844411503
H           1.50594276344783    1.09960865234236    4.43258404469992
H           2.79238570650174    1.16469221541172    2.31383071304019
H           3.02828606523659   -0.80012555028497    0.91598888290049
H           3.22168621196863   -2.58687232606015   -0.33070282679073
H           3.12565654477904   -8.15557516589682   -3.00056588026175
H          -2.20204010660978  -15.00355424851741    2.34394463078127
H          -2.05932894110000  -12.82213646707515    3.47760639222223
H           1.17920814373275  -15.32608269120678   -2.55092663894797
H           2.55087998424251  -19.34868963345767   -7.07244427826795
H           3.15010463557653  -20.41422671112225   -8.89731220998641
H           3.82497625699017  -21.55879274977668  -10.92420633733996
H           4.82138773144605  -20.33095672810251  -12.83424052604391
