74
 SCF done       -148.097542871060          0.000754773554
C           4.62393518981643    0.43543218996897    1.00886993637355
O           5.16214582143554    1.73723709488187    1.16861015262668
C           4.36053053471437    2.63213741939733    1.83952504822646
C           4.15365014093416    2.46913079930190    3.23723751289827
O           4.71411700642941    1.38254698828775    3.87659804088506
C           6.11504156513256    1.47669071160309    4.06836599076612
C           3.41541287219609    3.37393017521202    3.97578412097276
C           3.25449276522876    3.24977857299929    5.42579546719935
C           2.82456895209241    2.09390710666496    6.02620316954756
C           2.64671521232337    1.99923185298401    7.42184641207994
C           2.89573753811393    3.05319858675184    8.25231332015560
C           3.36659665940087    4.25597748562274    7.68736014822195
N           3.68968106442757    5.35269776289372    8.36437027869907
Se          4.26696508215266    6.56254343532830    7.24011262438553
N           4.05677126906768    5.51888306062911    5.85455432065524
C           3.55910277006841    4.35800637122160    6.26042335247310
C           2.86680254780558    4.47447866324839    3.28391649833189
N           2.13694629609893    5.46036115557625    3.80390756271676
S           1.80466634363266    6.51995033872142    2.64816554977249
N           2.53703360508868    5.77863504059382    1.42560984720344
C           3.08080886932220    4.64685399835448    1.87183970260307
C           3.81466157137715    3.69186600839632    1.12781858717670
C           4.03227174549096    3.81583063911665   -0.29994441378925
S           5.60059705527027    3.42068904708436   -0.93818985429090
C           5.11414699451605    3.82646066522612   -2.53587424585489
C           5.98559415749410    3.60613276159604   -3.66519245631236
C           7.36474896022507    3.74789554529529   -3.54973894686987
O           7.80307711657855    4.07820339881290   -2.31336221799871
C           9.11021172484111    3.75397650800330   -1.88341724407634
C           8.22603895315636    3.61420895600506   -4.68721257352187
O           9.51142397202050    4.02886686728537   -4.48515886106873
C          10.20598737673625    4.66327309607787   -5.53531680942119
C           7.74282795860856    3.15671138593713   -5.90180705300629
C           8.59380834419397    2.75990576526990   -7.02841209698087
C           8.34954716823211    3.13734997859135   -8.32475856261780
C           9.15169760897185    2.69327409769156   -9.39511912969071
C          10.20824798121292    1.84940163115191   -9.20467011224741
C          10.48277693503423    1.40429598105959   -7.89606115215738
N          11.45253577823197    0.56434654030957   -7.54885408983296
Se         11.37442536527231    0.28256453150704   -5.82392860836042
N          10.00023540223108    1.34552424820089   -5.61522202778138
C           9.66582725790126    1.85620321008215   -6.79467411740107
C           6.34896504732192    2.95352766023735   -6.02066173441539
N           5.69420995669501    2.50677675422253   -7.09151443790505
S           4.12884478830371    2.39918707583165   -6.73309918935655
N           4.20664251990775    2.89957382136700   -5.20730909647000
C           5.46995440636207    3.19388268942042   -4.91424776558324
C           3.79049217133107    4.23277600042497   -2.55379601764611
N           3.17632622775963    4.77191196023512   -3.72392092143604
O           2.01037075345293    4.52009793957037   -3.93831520976615
O           3.85716709489413    5.50365810004147   -4.41539966006175
C           3.15596989447726    4.21260336350327   -1.28235410528695
C           1.72410506161397    4.56242296824509   -1.06349534214378
H           5.40204891007540   -0.14769575714599    0.52034959184908
H           3.73293994556732    0.46322954005253    0.37273688573977
H           4.36973606014211   -0.01613008662868    1.97062067494138
H           6.35576932340827    2.31526285621213    4.73057054482582
H           6.64394643451260    1.60043167429328    3.11985391788830
H           6.41378638554191    0.54221082565710    4.53964159712228
H           2.59977571764689    1.23721074382818    5.40994246546102
H           2.29478322082168    1.06436977633277    7.83199445902587
H           2.75240289345863    2.99389601394619    9.31927499826167
H           9.45494622210164    2.81423370592405   -2.31637445841681
H           9.03639238094614    3.65719786816407   -0.79936594173480
H           9.81773015950994    4.54704078086016   -2.13229469300346
H          10.86303861660417    5.39307978512549   -5.05860426278254
H           9.52396424550262    5.17761436369263   -6.21599249518929
H          10.81797130743141    3.95831044815871   -6.10447018772763
H           7.52440601440054    3.80160711606243   -8.52877379849549
H           8.91446478717417    3.03797091807218  -10.39066417994660
H          10.82728619763209    1.50617790666330  -10.01775568305989
H           1.62656518420814    5.62620861185729   -0.85156381379855
H           1.32834468124582    4.01340894920490   -0.21330285274104
H           1.14041185690244    4.32615595362657   -1.94883235882327
