125
 SCF done       -233.736618375084          0.000376074220
C          13.46336388281659   -4.58399129655381    3.75199673416455
C          14.31203584475049   -4.23889651709209    4.75714950189886
S          13.51819428214375   -3.23275029655358    5.91454275364007
C          12.00642724752532   -3.27293229487608    5.04078009233917
C          10.80147872450419   -2.55580515455239    5.51394710559074
C          12.15410138569167   -4.03178574721773    3.92132397088328
C          11.29032534355718   -4.44789876682101    2.81545965970274
O          10.10706946594808   -4.20017095342121    2.69914592225288
C          12.17579488935889   -5.22918002350093    1.90537887543798
C          13.48787384965317   -5.36267646384776    2.53200178625411
C          14.57008442626931   -6.09219904273806    2.11297926372674
C          15.77053274182368   -6.09868486649456    2.85413499673469
N          16.75734271179451   -6.11443968403932    3.43996081270565
C          14.65017183232520   -6.91584591963149    0.97306142594748
N          14.79965294024231   -7.61757589402716    0.07565781373075
C          11.91843048851548   -5.68458682912283    0.64289735757938
C          10.76195247355848   -5.61752238933974   -0.16612577345684
C           9.47438796302426   -5.20876006900182    0.08269153551162
C           8.62798243369670   -5.27266110429611   -1.04032762923229
C           7.26990977923330   -4.88442959286679   -1.12017196936749
C           6.55101918462352   -4.31813684223023    0.00009987115868
C           5.24718021386918   -4.53837251527672    0.35558465608504
C           4.84350060845288   -3.79399931104862    1.47880351737738
C           5.82350792474753   -2.98848954713515    1.97587137834063
S           7.28436620620694   -3.14934588645512    1.06446955652560
C           5.76242360931664   -2.06706061734267    3.14015399760378
C           6.66122549329895   -5.04152906980950   -2.35905184412406
C           7.33246999274101   -5.53150976679620   -3.50889233136487
C           8.68476928899035   -5.92421805722125   -3.43044496176894
C           9.29178369352634   -5.79136484111026   -2.18539434217043
S          10.95240148258517   -6.15623234659226   -1.83413150825376
C           9.43127257052818   -6.40979305183179   -4.57260533746571
C          10.36832870674103   -7.40577187966850   -4.59606917741432
C          10.94900544565592   -7.59826813070893   -5.86430817346006
C          10.47607053158980   -6.74490052029744   -6.81292878821615
S           9.27698358291802   -5.68366473944019   -6.15106177387979
C          10.85367290281186   -6.65126827576847   -8.24717915067688
C           6.49372941211199   -5.53211869662724   -4.64647078683898
C           5.24234522304409   -5.03815090034587   -4.41324644250810
S           5.02235654595873   -4.58500363196557   -2.73486973739607
C           4.19371943223052   -4.82754939596307   -5.36906249075854
C           2.93595164411037   -4.38404296941780   -4.99818752723927
C           1.93743980686343   -4.09116708210949   -5.92501575374029
F           0.76890246664801   -3.66194829017129   -5.40860489530551
C           2.09384948125090   -4.18717426147608   -7.30221562970715
C           3.36738165280453   -4.67039993459205   -7.70460452165795
C           4.40450908855467   -5.00191558352536   -6.76361211320792
N           5.50377014621515   -5.43385977740556   -7.37838405765161
S           5.26262909555734   -5.42200298345302   -8.96641760881967
N           3.75389281193136   -4.87204050967479   -8.96093165069571
C           1.11834311625286   -3.79555652360097   -8.28123661887319
C          -0.18161517302596   -3.41370654228728   -8.09029249730812
C          -0.84148471871579   -3.02137863576341   -9.27715240765727
C          -2.16121748912998   -2.53922412168864   -9.41203351640650
C          -3.04685873106609   -2.34169105992232   -8.28349508696809
C          -4.38980395781512   -2.59221256848921   -8.21819225756570
C          -4.96527169163700   -2.23453401829721   -6.98385678231160
C          -4.07555374962915   -1.69433507325279   -6.10667064054870
S          -2.48679485600685   -1.63239547754555   -6.79292400670279
C          -4.31764039991588   -1.20023388934383   -4.72630851122057
C          -2.57165063697392   -2.22986214026281  -10.70363987135877
C          -1.72541608037448   -2.34103089644979  -11.83768382125906
C          -0.39156420232939   -2.78515133725707  -11.69640641627679
C           0.00157770549568   -3.14191991738927  -10.41074027521182
S           1.58128679591831   -3.72416813734836   -9.96624107569966
C           0.54331593620743   -2.79341522025386  -12.79931576900748
C           1.56379505483291   -3.66961103890958  -13.05354618564164
C           2.33239755620212   -3.32295943344160  -14.18026553828386
C           1.92405903357018   -2.17304002169604  -14.78806767453962
S           0.55455352491189   -1.50146388928328  -13.97462769185439
C           2.50275705638873   -1.48831689708048  -15.97441999967107
C          -2.37787362049250   -1.93921331345191  -13.01888986223947
C          -3.65804441799924   -1.48362474226749  -12.82585627780034
S          -4.13359613264383   -1.60234819398353  -11.14332369091013
C          -4.59722052033368   -1.04202078785393  -13.78939971075336
C          -4.37182070805709   -0.59472093695256  -15.05497686882794
C          -5.50459940290669   -0.60294387382291  -16.03218820418207
O          -6.67887229612238   -0.74615761182943  -15.77539422382326
C          -4.86298635063713   -0.46062186062379  -17.34151034575265
C          -5.26632849846206   -0.46976107069841  -18.64074622766516
S          -3.88041239915207   -0.24393937209230  -19.67995380923282
C          -2.79039871299891   -0.12566250444773  -18.34459725381235
C          -3.45284122433813   -0.26185023671008  -17.16645234399094
C          -3.15852147700552   -0.20118293121336  -15.74809368474636
C          -2.02396406109531    0.35769114289129  -15.21789958657367
C          -0.92498828697096    0.69261205441905  -16.03069870826356
N          -0.01001463207067    0.92606663403097  -16.68433133423345
C          -1.87327836392713    0.70082424226846  -13.86081760825702
N          -1.73981826203609    1.04802980025185  -12.77505338812275
C          -6.63491777155044   -0.62950870690181  -19.18006447575972
H          15.34194867887854   -4.49378045063834    4.90600603336944
H          10.50556541140966   -2.90870339794933    6.50140366525219
H           9.98932764168694   -2.72828091410135    4.81123184858500
H          10.99417598928317   -1.48571204917756    5.58629040745221
H          12.75483824818643   -6.14948930800320    0.13270067564516
H           9.16218342992124   -4.87599391534892    1.05420410892172
H           4.60968056395024   -5.24428755021877   -0.14535236992342
H           3.85752468002370   -3.85362294431174    1.90443084995985
H           4.77896347502421   -2.11360241053241    3.60162596857467
H           5.95741645512314   -1.04060416780068    2.82997661802477
H           6.51374526496230   -2.33869116985905    3.88123112471301
H          10.60988572250951   -8.01119551107083   -3.74134498759847
H          11.69658858987674   -8.34529622437853   -6.06315833165479
H          11.64239003251010   -7.36572106702829   -8.47007489983912
H          11.20776127269817   -5.64926662013086   -8.48776207473308
H           9.99599518413687   -6.86319318507349   -8.88573047204510
H           6.78981669279532   -5.87469425469245   -5.61939489656517
H           2.70558110762160   -4.23581123686162   -3.95377272782421
H          -0.66157449301514   -3.41795729616236   -7.13090754344613
H          -4.94334073407838   -3.05442603202027   -9.01546624337508
H          -6.00734223729457   -2.37220807867749   -6.75601804674728
H          -5.37232309162871   -1.29221522423218   -4.47832717123137
H          -4.02383574186744   -0.15491132519064   -4.63501857096495
H          -3.73472593866645   -1.77308564522632   -4.00519298779003
H           1.73737114772437   -4.55655774658281  -12.47171608111523
H           3.16605042594189   -3.90634110019173  -14.52927837881147
H           3.45384557223791   -1.02189305908736  -15.71454835139376
H           1.83067892069317   -0.71298248566158  -16.33585946413557
H           2.68683282890894   -2.20347029382690  -16.77500230654875
H          -1.94275155545024   -2.04014395369193  -13.99624734050571
H          -5.64328183772395   -1.13011282917508  -13.51275122650334
H          -1.74590974787740    0.02503902251085  -18.53054596751576
H          -7.32770980676086   -0.77918817130615  -18.35501598165236
H          -6.68679562915863   -1.48300513276831  -19.85535306848961
H          -6.93211442929234    0.25677715878566  -19.74031417041713
