95
 SCF done       -202.653773596864          0.000528388913
C          12.01515777934338   -4.01881504519625   -9.74567927327520
C          11.70678885875884   -3.76196901211417  -11.04447759552774
S          10.00077289192231   -3.84687546903855  -11.30065238531609
C           9.67959674657456   -4.23882465545633   -9.63091339276801
C           8.30701960337849   -4.45440287298995   -9.12260257966675
C          10.85631017446409   -4.29134826008048   -8.94689176312837
C          11.26773766796813   -4.55994520220368   -7.57409160241764
O          10.55366655909626   -4.87048959260007   -6.63424792034574
C          12.73172548572360   -4.36600730010933   -7.55284383979902
C          13.19443999783119   -4.09766334252508   -8.90735918542932
C          14.48030818439336   -3.96485251462718   -9.35996358570640
C          14.74720641968808   -3.70097530401871  -10.72002876375565
N          14.97377058751142   -3.48193041783707  -11.82327368827069
C          15.64701586855234   -4.09215953732374   -8.58109375631740
N          16.63218202747631   -4.19681877965093   -8.00057894672427
C          13.51088099276831   -4.30883904796531   -6.42838172888594
C          13.16243652596192   -4.47335300152525   -5.07589853045981
C          14.04933656536696   -4.15926534676142   -4.03831740065163
C          13.48102288515275   -4.32412024815404   -2.78959502231005
C          12.15807908925096   -4.82437287902327   -2.86807782804467
S          11.60734414881542   -5.03011672641035   -4.46594513666987
C          11.62883069138183   -4.87754420671307   -1.55906196810780
C          12.59576776076954   -4.38678612789442   -0.65453861400859
C          13.80808917161499   -4.07157307413808   -1.39349892996872
C          14.99353650996119   -3.63561010980485   -0.88101966818452
C          16.10700988214781   -3.35350481871146   -1.70112054316638
N          17.00981287821472   -3.11902965360043   -2.36726544025191
C          15.18709487937633   -3.45851162623217    0.50656425332459
N          15.34818298562409   -3.33051417650723    1.63408448223866
C          12.10803166772885   -4.26103920816993    0.64085930012284
C          10.78757110537937   -4.67615253417128    0.73789366195794
S          10.16169565054858   -5.28149674168871   -0.79220025128674
C           9.88089820513675   -4.54112343492526    1.82603621974130
C          10.04023655999686   -3.58754597758200    2.86074028618504
C           8.94730477847543   -3.26901068599649    3.74548603872025
N           9.08115815039208   -2.28655490847556    4.64469471089205
C          10.21186218736418   -1.63052773031397    4.73371877479951
C          11.30391235345934   -1.95965710835253    3.86563019249557
N          11.18893267043285   -2.90377866472016    2.96551928208516
C          12.52434924408560   -1.24274456110418    3.96558125646678
N          13.48633199543659   -0.63065786552155    4.06726896267529
C          10.33783707005979   -0.59366460433311    5.69118917193290
N          10.46385839277415    0.25299683949150    6.45181804224683
C           7.69044052454059   -3.91647175150063    3.68631633172075
C           7.59877460468637   -4.98817480296398    2.77077320210378
C           8.66588951117938   -5.26001949161652    1.84031105286352
N           8.34730767076354   -6.24620403829352    1.00054074489467
S           6.87936609638786   -6.78889963309370    1.35281699271303
N           6.55635164861048   -5.79397278225049    2.56683565377694
C           6.56940501607614   -3.40373294574386    4.38584415896846
C           5.29798459555443   -3.96383922548426    4.44777071853925
C           4.37762269869053   -3.09135930710945    5.00850621895363
C           4.94938030955781   -1.85039998872244    5.36891999382982
S           6.63713384685551   -1.79950833210183    5.09754459800448
C           3.90767506578407   -0.98462991603318    5.76686712661484
C           2.67746250176769   -1.67479211496236    5.67586135590912
C           2.94152631688059   -3.03405752355760    5.23326355162307
C           2.03625791770079   -4.03436588891742    5.03671982259308
C           2.41625357762842   -5.31077268673411    4.56897714922719
N           2.71363695717352   -6.34708287850774    4.17928473533906
C           0.65658020799366   -3.85751974647258    5.27660741054595
N          -0.46591457593445   -3.71799674077576    5.46230869638804
C           1.58330538480011   -0.85238652523104    5.90361082578608
C           1.95288280520186    0.46168390516306    6.17213409022558
S           3.70492576301981    0.65818379204187    6.15929240604284
C           1.05634846633599    1.55173464918813    6.21145074172451
C           1.28021536276307    2.87247315230388    6.45392033007437
C           0.35477435481215    3.87487049114365    5.83145043676534
O          -0.73716734497909    3.65201771577955    5.36171194462088
C           1.11166906424357    5.12732023303395    5.85703064515846
C           0.94711721096489    6.38644073666733    5.36574575921800
S           2.32131398633540    7.36660711288071    5.81241797256495
C           3.08561617791948    6.06788705496993    6.65655181564468
C           2.33137980681959    4.94030923730668    6.59042704755518
C           2.37857509420894    3.57858797510466    7.08270836684422
C           3.15010228189599    3.14472057489508    8.12935748686096
C           4.12077814467412    3.97922648432062    8.71829405469354
N           4.91656252683408    4.65630760746695    9.19186712014030
C           2.97164320420404    1.89611088706810    8.75382568334979
N           2.81180952240764    0.89407010573595    9.29086233120795
C          -0.17546313729641    6.92463515366857    4.56647342341723
H          12.34908052760468   -3.52548992052590  -11.86894194136524
H           7.81424703210181   -5.25597518881832   -9.67163806470257
H           7.70750314701608   -3.55226633477779   -9.24422301612410
H           8.35160218917258   -4.71494563821648   -8.06753690328040
H          14.55305174835185   -4.04553443223097   -6.56922918448889
H          15.04665073787525   -3.80229115293128   -4.22574725564689
H          12.65480140158680   -3.87530341263088    1.48087580566727
H           5.08770346484197   -4.94505742222062    4.06369979339342
H           0.55508088697605   -1.16457424440172    5.86550698700484
H           0.05691168062495    1.32284594510544    5.85117070200139
H           4.03612173780021    6.22897306618739    7.12464759400863
H          -0.91583257294765    6.14218613512431    4.41622471454066
H           0.17797127786652    7.27623162514880    3.59731993054369
H          -0.64180027732649    7.76751595676609    5.07520355115608
