95
 SCF done       -200.153356962205          0.000554610650
C           6.59789750137365   -4.57092234609318  -10.96080304782222
C           6.60800571958934   -4.70421482518031  -12.31382608561791
S           8.00545624727604   -5.57428118266598  -12.83658260420644
C           8.60219343015818   -5.77020105728390  -11.20809584141950
C           9.86186713077908   -6.48674730183670  -10.91171858550355
C           7.73693191311268   -5.17927541070497  -10.33818384155796
C           7.65567420409282   -4.99131536837114   -8.89443398564796
O           8.45441973973292   -5.36533398852591   -8.05123490781581
C           6.39812241134948   -4.25437676454630   -8.65826575372748
C           5.75637890101892   -3.98466666661876   -9.93684368548648
C           4.59002733123913   -3.31005520171785  -10.18695134625425
C           4.11590730362204   -3.14264620007395  -11.50515621706801
N           3.71757817450069   -2.99998159904123  -12.57167244305005
C           3.74796025965899   -2.71758511949033   -9.22622604426831
N           3.02066293967257   -2.21235041203215   -8.49489425772169
C           5.89447284519487   -3.91185184805537   -7.43195005613940
C           6.40914888617924   -4.12845886555827   -6.14174993484747
C           5.69882300698900   -3.74771203389288   -4.99628893150152
C           6.36978329150978   -4.06133282226184   -3.83022544154343
C           7.62114850726230   -4.67641601006442   -4.08084707236561
S           7.95078240210430   -4.88189164024979   -5.73936570036468
C           8.22298252820055   -4.97805055373717   -2.83675255893164
C           7.35282758236530   -4.56615241225067   -1.80192792881597
C           6.16830890274776   -3.96576530127766   -2.39342693236809
C           5.10176219613684   -3.42883197941921   -1.73474366061422
C           3.99925125774504   -2.86660435566907   -2.41291684999346
N           3.09882182132235   -2.40939747980056   -2.95497664247048
C           5.03376599367180   -3.40073257718595   -0.32575871417146
N           4.98026500618569   -3.37954692789100    0.81945109928072
C           7.84596764502474   -4.85458593709265   -0.53721275572028
C           9.08942728762852   -5.47260605862718   -0.60574374758786
S           9.66120634653426   -5.69284877522983   -2.25321771282248
C           9.88603238961372   -5.93738312871316    0.45330256869094
C          11.16279955830823   -6.49392427842040    0.31345188836841
C          11.73889669072325   -6.92971449189324    1.55431181460997
N          12.92763578937431   -7.53714792898167    1.57368056123681
C          13.54515395746573   -7.68074226284304    0.42150126436489
C          14.84023798992237   -8.41031601900545    0.44084050501691
O          15.24377453266533   -8.99585852788942    1.42099892827786
C          15.58004525408031   -8.39210806350119   -0.83429225468570
C          15.08297531102387   -7.89449453067323   -1.97123976575361
C          13.74105901399879   -7.29663754960641   -2.08401945441476
O          13.28421215256460   -6.91510835118039   -3.14056699587870
C          12.99561987019841   -7.18838523064653   -0.80472150260371
N          11.81081399462193   -6.61752969098810   -0.84376265985914
C          10.89636974132135   -6.69540164254731    2.65134215614633
S           9.41660895205125   -5.94651949114976    2.12263519869013
C          11.14585016152628   -7.04757373421105    3.99036378822228
C          12.34946907737209   -7.52047748256655    4.50449421903542
C          12.24135520594001   -7.83184106367786    5.85246387715839
C          10.94653669947800   -7.61308198424403    6.37208529712166
S           9.87489115658577   -6.97941492690491    5.20458187648453
C          10.92162596261395   -8.03073284445961    7.72121907691138
C          12.20217489937620   -8.51802093299522    8.06020247624039
C          13.08266921760490   -8.36256188533653    6.91562890206363
C          14.42680800337811   -8.58535073448259    6.88859664370410
C          15.23574528735769   -8.28038863118949    5.77171048280007
N          15.91592974315979   -8.00319625126487    4.89233071133455
C          15.10306069022912   -9.09222295212503    8.01966685979589
N          15.63357097991695   -9.51493624874280    8.94403774098993
C          12.28129660369754   -8.96137484772937    9.37295918027283
C          11.07844385049892   -8.81737323863690   10.05053473799501
S           9.82425852034785   -8.13858800455095    9.01867167970370
C          10.75081301205936   -9.20043483142750   11.36950277778232
C          11.57572478727744   -9.47103535209385   12.41837888532650
C          11.02247666316027  -10.27948171904837   13.55431530715059
O           9.85627548922793  -10.54387354214102   13.74094756006168
C          12.19775916403474  -10.69971338485678   14.31444502314694
C          12.44294744935316  -11.50766936281486   15.38259272448110
S          14.15664032824582  -11.52323344138198   15.71476962550008
C          14.50704422987304  -10.43406033170612   14.42150809999795
C          13.37088589859786  -10.08401902692769   13.76343983683341
C          12.98345638563590   -9.21824925398786   12.66645957636886
C          13.77067672550303   -8.21141905350028   12.16874215009012
C          15.09986360977960   -8.03664340144765   12.60835825688984
N          16.17910839550753   -7.88322964957226   12.96483037252792
C          13.33654937558461   -7.22150883089385   11.27054121713646
N          13.01066567883171   -6.38402480586917   10.55514048316229
C          11.47773494084064  -12.28525037080084   16.19031976654259
H           5.90260913088783   -4.35992834470790  -13.04328170429456
H          10.70121965689993   -6.01734624990320  -11.42396629887556
H           9.80342085468270   -7.52101925354161  -11.25040232625710
H          10.04065631880936   -6.47052982561618   -9.83889280358684
H           4.93827105130917   -3.40151420618069   -7.42386768064769
H           4.73541230692775   -3.27208071300271   -5.05135415988899
H           7.35372087058688   -4.64163922843106    0.39488230329183
H          16.56340962026137   -8.84102632929704   -0.79804491735537
H          15.64915794995277   -7.92172709497971   -2.89254042438762
H          13.22520029007519   -7.63517869009794    3.89100042323302
H          13.14841145951408   -9.42044682397608    9.81116939964339
H           9.69718133414596   -9.37499714842952   11.56788098143621
H          15.52248672030477  -10.14602185689368   14.23661099728097
H          10.47375926671481  -12.11901379354845   15.80640162473722
H          11.51759382791571  -11.98044085270749   17.23561619919546
H          11.70849723552024  -13.34933725724979   16.14574910957209
