97
 SCF done       -177.126413072120          0.000411180189
C          -0.96297924133428    3.76114570344012    2.20466258974792
N          -0.23238486158970    2.51434655855293    2.35738373542955
C           0.28940064845648    1.90357560008607    1.23017770326170
O           0.15842957993563    2.40975875187866    0.13281530912956
C           0.95895494801523    0.61865001737508    1.45190232742728
C           1.39341609491728   -0.03294758682916    0.32596545589560
C           2.01430812546150   -1.28892342368142    0.20185339546613
C           1.68007222598591   -2.42718348171170    0.88148714713161
O           0.56550015210940   -2.53894425742559    1.64031405789505
C           0.62079381916708   -3.61825775892917    2.55306050409813
C           1.03126580227589   -4.90146093683290    1.83852292913039
O           2.31413366480701   -4.76184457325647    1.25262995055719
C           2.53865206455238   -3.55928329591967    0.67567611999651
C           3.61715355643159   -3.35210281112110   -0.14845509872739
C           4.59988443164511   -4.28234712410560   -0.44008709977893
S           4.76848983512437   -5.90280181484557    0.15985522374794
C           6.25221964202707   -6.21422408041754   -0.72265276737527
C           6.84444355741311   -7.47470185541639   -0.58925864328472
C           8.04369240926250   -7.88623231521770   -1.14013303699175
O           8.79072361002042   -7.09795013631225   -1.91322628772846
C           9.82851948007766   -7.72772861449700   -2.63803877041105
C          10.53070359334709   -8.75749014034884   -1.76552194120010
O           9.60170241109747   -9.73497211282037   -1.32085373025333
C           8.45693354623094   -9.23697103366777   -0.82448564852365
C           7.58108386685360   -9.99341635893963   -0.08704686796220
C           7.77872174740155  -11.30825166909110    0.37332913151016
C           8.92042025069711  -11.93054544768661    0.80918284117836
C           8.80391843986619  -13.36606241347995    1.08024630862789
O           7.75323033474070  -13.97612049549600    1.02703025654164
N           9.98900974760106  -14.01969496230145    1.36649317316741
C           9.96827438828809  -15.46027475113485    1.55514237679855
C          11.22143415345693  -13.41295368825290    1.48920180065733
O          12.22430710369100  -14.05326681286966    1.70565122943545
N          11.25068700421100  -12.03829606607500    1.38484764411905
C          12.54158148348504  -11.41843765599547    1.63069032582496
C          10.16225025801509  -11.22518098089923    1.10081835110153
O          10.27544777512182  -10.01499423088882    1.14921648237195
Si          6.05005351621335   -8.95081190802708    0.29448905185945
C           5.78346182510333   -8.72879525119725    2.16165393730984
C           4.49011220908638   -9.53107807617453   -0.62942620765634
C           6.59972990030215   -5.07170120957686   -1.47470464390056
N           7.64392141899377   -4.91181368506313   -2.28247627752697
C           7.75962427548271   -3.76710002452717   -2.92050452859594
C           6.80052644736602   -2.71135567838391   -2.77547133210836
N           5.76453142871050   -2.84651865441673   -1.96577422676096
C           5.65576229620980   -3.99783463407909   -1.31804463472138
C           6.93119023894346   -1.45170199964999   -3.52783775392981
O           6.12163641826122   -0.54108900361486   -3.43516448852681
C           8.10432862246100   -1.36491280932726   -4.40314602915186
C           9.01119465120321   -2.34304151337312   -4.52776593716476
C           8.93507315563198   -3.62001955808441   -3.80547782897222
O           9.78131889009526   -4.48761423475838   -3.93419177567080
Si          3.56444304822399   -1.60541044726600   -0.89616412958649
C           3.03138158191133   -1.55786116052762   -2.71899388741956
C           4.91227722365477   -0.38755359471624   -0.35216508413892
C           1.21284880282754    0.13989711207829    2.80574072943875
O           1.91784691043619   -0.81115372813770    3.08742195988587
N           0.61609637647927    0.88105099378745    3.81647158273827
C           0.78464935468145    0.44736664031008    5.19294323557193
C          -0.12091750528837    2.03449164251737    3.64412254237614
O          -0.62730530841591    2.60694521066229    4.58155346364785
H          -1.04088235749993    3.96828385974578    1.14021345882413
H          -0.43053588476485    4.56778920088005    2.70826892069463
H          -1.95146250680488    3.66175895527003    2.65117610107664
H           1.30219656850050    0.54680578189947   -0.58873382159441
H          -0.37771080934992   -3.71018337359764    2.98230775812293
H           1.34501017885543   -3.37958527511806    3.34185671154344
H           0.30015630783187   -5.13659198696800    1.05321606229847
H           1.10086869662512   -5.73873565217494    2.53472427219585
H          10.49182572953592   -6.92339508983833   -2.95863987216961
H           9.40157747000928   -8.21971005319515   -3.52252255549531
H          10.97748006260687   -8.27304281643186   -0.88907431346825
H          11.29826568933431   -9.29864286305017   -2.31976190826890
H           6.88725817007835  -11.92696080954062    0.42558473879180
H           8.95730589340548  -15.80414562518661    1.35075181528305
H          10.25095130183358  -15.70583231654665    2.57862348937234
H          10.67888265046145  -15.92701324193386    0.87420633866403
H          13.26210130753844  -11.76206875881656    0.88891168906642
H          12.90167547073594  -11.69526389072715    2.62107531189200
H          12.40838219812473  -10.34165941604455    1.56395790775161
H           6.69642231480669   -8.40619419356541    2.65357503181374
H           5.47734531181423   -9.66636507483937    2.61498263321143
H           5.01215684366854   -7.99251512249232    2.36383071084718
H           4.67160013665527   -9.64481675541251   -1.69418868846052
H           3.68452675837344   -8.81514776831140   -0.50155115647946
H           4.14761929976638  -10.48700089563751   -0.24678591253029
H           8.19813081392350   -0.43952347519138   -4.95536600094454
H           9.86442737643179   -2.23436680526909   -5.18372589863267
H           2.68601359942318   -2.52377792497023   -3.07324476840836
H           3.87665318424023   -1.25315321716326   -3.32524875715862
H           2.23504768167861   -0.83694137314532   -2.87144941574897
H           5.52778376838217   -0.78793549316035    0.44695696731310
H           4.46700648452609    0.53773856027125   -0.00113499034582
H           5.55273808399500   -0.15324232998891   -1.19447371954457
H           1.47601830595794   -0.39151583216048    5.19267814193102
H          -0.17784286226788    0.14704804533999    5.60725450597405
H           1.18049533428928    1.26810485381408    5.78965499755582
