89
 SCF done       -186.034126987412          0.000739716187
C          -1.10784142369104   -2.14558313984146    2.82265088598595
O          -1.49382625446245   -1.42034929577124    1.92926528621240
N          -1.89709928097503   -2.39291302841444    3.93279357429003
C          -3.20420285367480   -1.76016898858506    4.01190736466957
C          -1.55924874315509   -3.19932884736367    4.99682177170512
O          -2.30783839599685   -3.36215121779133    5.93025432260920
N          -0.31754173396684   -3.81175654882933    4.93555768952445
C           0.07161237802496   -4.67322416801085    6.03971935592514
C           0.58645420591548   -3.67174256365852    3.90881091643457
O           1.65530276641284   -4.26839308341075    3.96833311983278
C           0.20037164136595   -2.81100467696307    2.81203821959800
C           0.99447789052841   -2.55244889964543    1.72116547872308
C           2.27784321363805   -2.98012723244265    1.35876212742929
C           2.89273858599559   -2.54706234528938    0.17706833024141
C           4.15587540897451   -3.07965626237171    0.01167695365690
C           4.51738057311255   -3.93901945696375    1.07869063159357
S           3.31047587785058   -4.07924804125863    2.27110605811461
C           5.82301363402481   -4.42892656449263    0.81848742005899
C           6.28029013752274   -3.88348412489137   -0.39655668803855
C           5.25079737297437   -3.01816185879173   -0.94369404530475
C           5.31284749384341   -2.30032559841154   -2.10215693739386
C           6.45023214123227   -2.32340572706363   -2.93695713276005
N           7.37379443179460   -2.33513715181356   -3.61709332135322
C           4.24899776616973   -1.48394793013399   -2.54051665293415
N           3.39059127689288   -0.81729762403679   -2.90563188034422
C           7.56179581652369   -4.30545585103258   -0.73390767095852
C           8.08631959843544   -5.16833741861880    0.21369981812843
S           6.97263092674561   -5.46114415309686    1.53856381773791
C           9.38499724152858   -5.76345701750249    0.15741082627202
C           9.89517889395925   -6.63698733607008    1.11120827060728
F           9.13582148940092   -6.97288481985927    2.17082035979346
C          11.17416943956297   -7.20170281003391    1.04348076772566
F          11.52848785543987   -8.03122996340108    2.04314151060700
C          12.07889526864547   -6.94638311510564    0.01913357411811
C          11.58518006591859   -6.06326679932504   -0.97438944544182
C          10.28015265579619   -5.49342250373164   -0.90889645821489
N          10.13508739023680   -4.71865469941469   -1.99326062027257
N          11.26186693778801   -4.83165329970907   -2.63416357104133
N          12.16002744059339   -5.60393347205321   -2.09472391711890
C          11.49032731012264   -4.15861665591641   -3.87458123445607
C          13.39462987852825   -7.50033700658883   -0.05735083982092
C          14.33363358064456   -7.20265429111628   -1.03131118487169
C          15.52320622221876   -7.89583059359668   -0.83449954164883
C          15.48617322689096   -8.73451733564655    0.29499908184093
S          13.99341717314767   -8.65771500039522    1.11646008118261
C          16.73409550977424   -9.39646133066035    0.40156907392999
C          17.56595259976810   -8.96561968407359   -0.65796205586293
C          16.82578203621387   -8.01463830797951   -1.47152044894614
C          17.24188942055563   -7.36891000573276   -2.59794248390875
C          18.51738899094763   -7.55745713269561   -3.17445946186404
N          19.53732316207364   -7.69350958487830   -3.67887576199880
C          16.40754021483587   -6.45996192645240   -3.28454918205613
N          15.73709706842553   -5.71868142333509   -3.84674309111477
C          18.82764936941730   -9.54353469083283   -0.63204329485519
C          18.98135703822119  -10.42835316046084    0.42793937844210
S          17.50418705058922  -10.52594446794921    1.40588507299401
C          20.03203824131300  -11.26528113434730    0.84943981854274
C          21.33186556075820  -11.44478662557747    0.45439614652916
C          22.05111203891665  -10.66178915997497   -0.54870523190463
O          21.58507882390690   -9.71136947611618   -1.14617968960936
N          23.35765432416145  -11.05245396801014   -0.79027869850552
C          24.03602770166396  -12.07568074674079   -0.16062602399683
O          25.17989314924958  -12.34049058245420   -0.44492854503903
N          23.33681507471815  -12.76782396637934    0.80783452274161
C          22.03199650108187  -12.52251388306507    1.17758637089490
O          21.51182932839781  -13.18823010571007    2.05061873433504
C          24.02143539889954  -13.84391240835451    1.50558178802497
C          24.12415863496578  -10.32054030433548   -1.78732212503500
H          -3.34786580378519   -1.18519209416387    3.10056884240571
H          -3.24551073164732   -1.10779380270981    4.88349211053549
H          -3.97575308418363   -2.52292731418108    4.10844123323280
H          -0.73521975068471   -4.67283496102312    6.76764811573166
H           0.99084011043844   -4.29753643389950    6.48849826631084
H           0.25087830847274   -5.68252363504003    5.66986383794401
H           0.53274133946943   -1.87857169279720    1.00326853248450
H           2.40941349186584   -1.87116005037843   -0.50584170461249
H           8.11117437872877   -4.01954045992152   -1.61112650013442
H          10.76858644166859   -3.34956356401381   -3.96357041654793
H          11.36031410285446   -4.85456224167575   -4.70513461356156
H          12.51107768563540   -3.78051526231392   -3.89413538824829
H          14.12741211890475   -6.51266707654421   -1.82792275858398
H          19.62017175195448   -9.34554969059058   -1.33032328227588
H          19.75734978620225  -11.92912991384683    1.66795246750937
H          25.01394039177744  -13.94768361641159    1.07549573177189
H          23.45469569491034  -14.76736990609746    1.39079471981507
H          24.08933945887992  -13.60657620995593    2.56713595662273
H          23.46361643009783   -9.58970978687913   -2.24683595912290
H          24.50582417532195  -11.01554226524668   -2.53388380277900
H          24.96718994180828   -9.82097742756740   -1.31081667295244
