91
 SCF done       -190.878290405124          0.000677711288
C          -1.03538681308578   -3.06894022335117    4.22796336305640
O          -0.60884398533091   -3.46145129385236    5.29547437909384
N          -2.30538876339146   -2.54214983499081    4.12280610657697
C          -3.12474532149171   -2.44872515836993    5.32074239717784
C          -2.89235913254520   -2.08082294711180    2.96123216137888
O          -4.00804900866633   -1.61851393891892    2.96349889893797
N          -2.13760706856127   -2.18909323332230    1.81065830879510
C          -2.74675163517431   -1.76474997282217    0.55977834169331
C          -0.85319759910103   -2.69390779238678    1.72314957007493
O          -0.32958710073892   -2.78755442183986    0.63066614897424
C          -0.23841358274285   -3.10221723295778    2.98583511133470
C           1.03500937859609   -3.57774419554776    3.15171287095156
C           2.14656125519881   -3.71139563824077    2.29598836294277
C           2.41005536357185   -3.27014562297552    1.00471540881405
C           3.68920361615913   -3.60673867816352    0.58583253319590
C           4.42194899910449   -4.33046617219352    1.55659073657444
S           3.53916503106292   -4.56245321795846    2.98728764401923
C           5.69058700645956   -4.65441839063706    1.02217463745745
C           5.76635212911962   -4.12928482540105   -0.28679788070789
C           4.51959528318717   -3.44354487600286   -0.59529485582567
C           4.21851729527771   -2.76991438588274   -1.74157702426777
C           5.13043552077552   -2.69415478855692   -2.81652224333348
N           5.87204017983327   -2.63564549643321   -3.68905219062230
C           3.00191773073647   -2.07963218875350   -1.93721256669332
N           2.03661934986529   -1.49000315010752   -2.12111782061891
C           6.98129050507773   -4.39704232871314   -0.90185935395015
C           7.82405313276963   -5.12417427600916   -0.06866498731905
S           7.11108628699771   -5.47918610594687    1.49698776317443
C           9.12183251110768   -5.58871743265698   -0.33876101683743
C           9.90407675712016   -6.33530770061633    0.54981956476083
C          11.19202625519261   -6.69016076820753    0.02483624283776
N          12.07257646602278   -7.35255229595911    0.77930729065842
C          11.69256868722384   -7.67844263266158    1.99520627770995
C          12.69988032811561   -8.35566872744693    2.85512420875725
O          13.85920113482796   -8.47568813438740    2.52852615320303
C          12.18511857981149   -8.83923545940632    4.14974027842016
C          10.95072667339793   -8.58812494011002    4.59758573165848
C           9.95228490897496   -7.80774838093518    3.84627447331766
O           8.85780282414309   -7.54207087100152    4.29535877388397
C          10.38557450015076   -7.37525333529134    2.49317593237205
N           9.51694761250928   -6.70147516797458    1.77061287557747
C          11.38759661790006   -6.22043781065923   -1.28235060351881
S           9.98967829934125   -5.33128215307244   -1.81676390895680
C          12.52756742408120   -6.41406908159140   -2.08487625258663
C          13.58530889893786   -7.27619682746002   -1.81308241595404
C          14.54452875980219   -7.24005888939433   -2.81633178842198
C          14.23522281288695   -6.32497284292699   -3.84509617922386
S          12.73807359569089   -5.54184905166545   -3.59648019257843
C          15.28621034837012   -6.32870615826513   -4.78715518948224
C          16.26415234555482   -7.26192927945712   -4.36808661649072
C          15.81963884057047   -7.87444032858746   -3.12639849008638
C          16.43363728920485   -8.86502703160179   -2.42121702739091
C          17.69602508625133   -9.39284575782341   -2.77468692970883
N          18.72734900700715   -9.82828553717861   -3.01924894430651
C          15.83669179597848   -9.47524287512532   -1.29453762995412
N          15.34934143562634  -10.01963071582969   -0.41186152083219
C          17.33326686807203   -7.36158740238835   -5.24766332566368
C          17.20516150814387   -6.50411377365603   -6.33370543411596
S          15.70659160188066   -5.56197532820107   -6.24306689686722
C          18.02502866122279   -6.21751600592370   -7.44292853351656
C          19.17979484700224   -6.76060912314308   -7.93944839831770
C          19.86108219232386   -7.95773458753848   -7.44997316019073
O          19.46598082643146   -8.66349459505128   -6.54337100691095
N          21.03116487174024   -8.29976868225700   -8.10480626615355
C          21.59707581971522   -7.63548806775657   -9.17438316586482
O          22.63313516724824   -7.99708908722940   -9.68021807603149
N          20.90274262758572   -6.53446864486305   -9.63611758744795
C          19.72216561377457   -6.05144105695115   -9.11350017917649
O          19.18873241828001   -5.07992906678990   -9.61033834539874
C          21.44886369806513   -5.81379802692625  -10.77512583540391
C          21.70994261650957   -9.48939561882586   -7.61371975700179
H          -2.53388368980169   -2.81556925946897    6.15612239282586
H          -4.02502546191368   -3.05004989219115    5.19893748135041
H          -3.41593603471622   -1.41181822425643    5.48398964759590
H          -3.70515582002443   -1.30682434691769    0.78813867160565
H          -2.88462657959902   -2.62695662976357   -0.09284143865333
H          -2.08859005124177   -1.05427246440048    0.06125433842443
H           1.22507844648828   -3.90912637904944    4.17118671795563
H           1.67895384287995   -2.74421705772427    0.41836305202671
H           7.26402584196072   -4.09796890667755   -1.89529965589849
H          12.89454931862194   -9.40294749435397    4.74033611062964
H          10.61968094391835   -8.94239395504617    5.56454336035095
H          13.61745336009249   -7.87244395354209   -0.91885819449876
H          18.17486842290717   -8.02123086154179   -5.13783957468750
H          17.67668642364004   -5.37447857569935   -8.03757357380474
H          22.39597807988342   -6.27308034906353  -11.04451860168031
H          21.59249318737482   -4.76790629265350  -10.50551274560293
H          20.74970713400619   -5.86551145614653  -11.60964175322942
H          21.88882892607923   -9.38693550244488   -6.54384966326061
H          22.64789077997650   -9.59193449536201   -8.15245294113396
H          21.08050574272723  -10.36435426141940   -7.77772657990743
