73
 SCF done       -162.280602289171          0.000368734897
C           5.84487251681440   -1.15620855010162   -9.99122433673177
C           4.48814720232663   -1.30134602978097   -9.86940758726732
C           3.52652237149595   -1.07110732016470  -10.85680265481434
N           2.74240240787776   -0.87973320365353  -11.67200506084792
S           4.02805459602211   -1.83204843893378   -8.27568476089777
C           5.68805379656832   -1.85883534977236   -7.76500050612861
C           6.53395234362468   -1.47011116198394   -8.80223474984529
C           7.93391993057212   -1.39233603769939   -8.70991442864066
N           9.07819191247432   -1.31893086762678   -8.67629053674756
C           6.01576878444893   -2.24613654046810   -6.43931111225537
C           5.11635195651900   -2.64866464183695   -5.46463818320315
C           5.75297857745673   -2.96744710721851   -4.26932157173477
C           7.15073710896584   -2.80299058388410   -4.33456869591067
S           7.67819190769503   -2.26014182657814   -5.86295820049039
C           7.71079711342235   -3.15496070591342   -3.08197039659531
C           6.66081892172902   -3.54647347128489   -2.22363988969643
C           5.39957408855999   -3.43793899790434   -2.94056069969527
C           4.15167992077063   -3.71795299704565   -2.46757079828266
C           2.99856550406211   -3.56868178483541   -3.26710353840669
N           2.06386551926178   -3.44661422531987   -3.91959297499490
C           3.93510515324866   -4.17344813263391   -1.14957405254646
N           3.76041929494554   -4.54453595889387   -0.07913951187361
C           7.10769368124884   -3.92296976563054   -0.96388379276273
C           8.48956382289439   -3.81698040489260   -0.86267431841850
S           9.24782764579865   -3.24190495452345   -2.34074107301700
C           9.30752745055788   -4.11671545941819    0.23972998692682
C          10.69879645744361   -3.97622118464352    0.26428952610591
C          11.28307785660523   -4.37243930792801    1.51205541456297
N          12.59732918264509   -4.30167230621894    1.71600150239702
C          13.33019822823955   -3.85310344485451    0.71833143261206
C          14.79394529286849   -3.76305734866965    0.94664662213809
O          15.30918241386393   -4.06702869327449    2.00173945430793
C          15.57437086276714   -3.27325715185806   -0.20252933402066
C          15.03107259007821   -2.91485863685225   -1.37063863672115
C          13.58599039728577   -2.96691315094095   -1.65073382384044
O          13.11622645950707   -2.62924355168046   -2.71653424658613
C          12.74717814413260   -3.46404748227912   -0.53111776074541
N          11.44936999652984   -3.52888709289207   -0.74186220380545
C          10.33942687269875   -4.81984203696261    2.44367252446686
S           8.74103427245287   -4.73345688615189    1.76489396195927
C          10.64492087755198   -5.28723788390207    3.73267774069459
C           9.77323608151895   -5.73837725049123    4.71657110443220
C          10.45755514351637   -6.13734656435692    5.85717455256522
C          11.85521905326179   -5.99072378150287    5.73343477553652
S          12.33221787156607   -5.35416786926641    4.22286026061278
C          12.45399966843926   -6.43542396856032    6.93920787302536
C          11.44313129561334   -6.85553375566587    7.82211310603213
C          10.15582596475853   -6.69373793980189    7.16886901564557
C           8.92741320016221   -7.01801765104447    7.66311000893899
C           7.74612351759738   -6.80916576406016    6.91949692967991
N           6.78887727433157   -6.63859944023109    6.31216658613486
C           8.75354858915040   -7.60684556455732    8.93447366682377
N           8.60409307203593   -8.10681465629715    9.95484024400389
C          11.94390718647900   -7.29978644932856    9.04699905306593
C          13.32227879484137   -7.23645191359888    9.09013450670083
S          14.01477901596023   -6.61379729250686    7.59937531323605
C          14.16814766930039   -7.61564315553438   10.18575889368927
C          15.48868395323535   -8.02140158455201   10.07361841562157
C          16.24225463342260   -8.17778586207858    8.90894672668593
N          16.88047578340715   -8.33048327067585    7.96678229325073
S          16.19950022841329   -8.42039688225098   11.61005848854882
C          14.74341286542174   -8.03816476860946   12.41013884677013
C          13.75285560882106   -7.62875668531229   11.55695363902836
C          12.49624558697512   -7.20109432346031   12.02845130735402
N          11.49346197934490   -6.83288810267790   12.44305095099351
H           6.33192885771309   -0.83785392033547  -10.89583948615959
H           4.05573461517185   -2.70294409517979   -5.63544079662551
H           6.48954912061670   -4.25913201469386   -0.15072743188477
H          16.64199097660939   -3.21725263907597   -0.03800073278079
H          15.64158247810770   -2.55768437464257   -2.18898355168187
H           8.70684095087755   -5.76375029142210    4.58060784210101
H          11.34067698792212   -7.66587827758300    9.85764225325713
H          14.67590854213804   -8.12044921367399   13.47770661624912
