73
 SCF done       -164.791132346990          0.001006770109
C          16.31303940997915    3.74827397668460   -4.67315333428710
C          16.82764907937136    4.17405712939711   -3.47651880457993
C          17.90204405017538    5.04624879922009   -3.28324169369207
N          18.78313000920469    5.76426592609559   -3.12753618681598
S          15.96979736472978    3.49643864973739   -2.12244647241894
C          14.90182623740359    2.62925080903953   -3.18067744018562
C          15.22066876653120    2.87152193383825   -4.51689361869955
C          14.54989473372887    2.33279876124102   -5.62855466190547
N          14.03501074459830    1.92263377419445   -6.56748515018732
C          13.86241782139639    1.82229305207898   -2.64650485331323
C          12.93054577120956    1.05234322110426   -3.32440406155579
C          12.04479739425321    0.42435237970296   -2.45154468745240
C          12.30355767528672    0.71753117847326   -1.09677525746785
S          13.63987918619334    1.75565298577617   -0.90059299603122
C          11.33226021379772    0.08148730244364   -0.29175340102997
C          10.45304061038025   -0.62401355036264   -1.14034518878752
C          10.87554326921165   -0.43799818684227   -2.52099497072316
C          10.28043980040034   -0.95028313565001   -3.63477505036136
C          10.76197065780834   -0.70698366517940   -4.93994011874515
N          11.13806906045564   -0.52129266052105   -6.00631658538802
C           9.12803331046345   -1.76286521831215   -3.55915484336371
N           8.18858414858810   -2.41773159215814   -3.50573311122875
C           9.42427267392930   -1.24593300543705   -0.44874529317816
C           9.50336944548602   -1.01214476715380    0.92024718209560
S          10.89288460097440   -0.03151543678364    1.35779170116602
C           8.55852704907508   -1.39882870203519    1.90341908988886
C           8.71261543538206   -1.00585885549213    3.25198441622770
C           7.67954089731273   -1.20572008197175    4.23394261388213
N           7.87078309805606   -0.78553297147896    5.48840240982519
C           8.99831651693979   -0.20381502844492    5.82060495225719
C          10.02451770813452    0.00010141446693    4.84215141178748
N           9.84989005765901   -0.39743923820990    3.60473337319498
C          11.24380381596320    0.62762411969932    5.19884719344152
N          12.22130666490985    1.13562353365854    5.51163593930803
C           9.19421759425448    0.20978710475374    7.16160434659941
N           9.38207018586514    0.55039684538373    8.23864852587215
C           6.44375826997854   -1.81483150300135    3.91586122615660
C           6.34005832490608   -2.32615805653432    2.60033251369478
C           7.37554117033470   -2.11875750466997    1.61218818124736
N           7.04471030074455   -2.66030494007317    0.43981549056569
S           5.60673887196893   -3.35773749335729    0.55711669355533
N           5.31209096057511   -3.00626270643685    2.09216946118027
C           5.37433378373357   -1.82192530083170    4.84526417361125
C           4.10824376657816   -2.36773750187716    4.66004807091179
C           3.26031102998005   -2.07717017269962    5.71851363126206
C           3.88247530564598   -1.30023711521543    6.71863306544217
S           5.52119567898717   -0.96508571067805    6.37269155896183
C           2.91596577451364   -0.99863209988359    7.70778626795216
C           1.68946075999884   -1.58478735190813    7.34211741847967
C           1.86511979878085   -2.28378853429886    6.08030582489834
C           0.92029311942307   -2.95651609421239    5.36391282489646
C           1.21919620510062   -3.58922198664525    4.13788388218237
N           1.45369165482960   -4.10409163001330    3.14079816000843
C          -0.42560297425926   -3.04407792713806    5.78181250184646
N          -1.52474584951804   -3.09658979199580    6.10241577304193
C           0.66590451253877   -1.30683924347663    8.24886565572118
C           1.10102033135959   -0.49886468097543    9.28096415866287
S           2.80410157998725   -0.08926577246271    9.14513859789230
C           0.31310380896731    0.01279455452240   10.36578175674110
C           0.57380630127400    1.18619653791324   11.05643733945685
C           1.60020939939112    2.10453914605240   10.82773286060401
N           2.42380694989654    2.88411823503914   10.64916998986009
S          -0.60666443722689    1.51224359447258   12.29075134779722
C          -1.44839666291662    0.08260874161682   11.89767824899568
C          -0.86895433252086   -0.61772392822933   10.87276086058184
C          -1.37165459143415   -1.86028183176643   10.43953737795154
N          -1.78551851851305   -2.88049289996817   10.12270356643725
H          16.69951691709192    4.05235459641088   -5.62983376589728
H          12.90392535966046    0.96608257251577   -4.39532472713581
H           8.63301613077745   -1.83133071680217   -0.87959984573988
H           3.85386384212803   -2.92690549753771    3.77845970492750
H          -0.34758542766932   -1.65144103148889    8.15231739795826
H          -2.33160217594596   -0.19096575586809   12.44174738113764
