101
 SCF done       -197.264092874367          0.000495204395
C          -0.01021405887304   -2.73885673837683    2.34966569918379
O           0.40041070445080   -3.63659809625830    1.64238490409711
C           0.81782241878934   -1.63058496540763    2.87422834687702
C           0.03473358468829   -0.79102653240841    3.68155077571155
C           0.61559140128470    0.32465320115399    4.26834780654972
C           1.96041529326202    0.57609370386645    4.04128479446070
C           2.71519013069933   -0.27308830836764    3.24314831295250
C           2.15685499390095   -1.39329563974847    2.64375501480871
Br          4.55506927682485    0.11067347531832    2.96369221594252
C          -1.32485496613543   -1.32651176396723    3.72798442681428
C          -2.33584880052289   -0.80743634153241    4.49536679509641
C          -2.20061346902665    0.34053678691641    5.30559178803371
N          -2.16512352716754    1.26815539890049    5.98094618357386
C          -3.64256720920579   -1.32401277601829    4.63138934269011
N          -4.72030310896188   -1.67254107188266    4.82293949481798
C          -1.37271193268907   -2.49603282666331    2.86480178536316
C          -2.53569238366115   -3.16747806676986    2.57092244198426
C          -2.79589711227937   -4.28416576883183    1.76246593035655
C          -1.97631473392416   -5.14041397726394    1.02652148566070
C          -2.66258144228011   -6.12309810920247    0.33826933957927
C          -4.05701257277047   -6.02961060205731    0.55037007314975
S          -4.48991760407201   -4.74734482037522    1.59414840349451
C          -4.84305676481241   -6.97281727057747   -0.14014120787237
C          -4.12817769528463   -7.87578538691385   -0.95370865707328
Si         -2.28595424989541   -7.54443824822272   -0.82589150257806
C          -1.51679459604655   -6.98851455544157   -2.43821339272625
C          -1.34909612475379   -8.93667227994474    0.00276554371020
C          -4.99009940965641   -8.73433448808062   -1.61545329322231
C          -6.33631960966300   -8.51736810632554   -1.32696036282245
S          -6.54663856901648   -7.21179860627105   -0.18716637990486
C          -7.45218675316837   -9.20739643015321   -1.86273149410249
C          -8.76944524426729   -8.90815642551480   -1.44211200854012
C          -9.92496041801306   -9.57210891668198   -1.98587936607247
N         -11.14163942258413   -9.25059561682744   -1.53563049132805
C         -11.28048461441136   -8.33296782712646   -0.60934292751798
C         -10.13178489961980   -7.66576776429225   -0.07508312237662
N          -8.93033663405589   -7.97140498832935   -0.50171509877013
C         -10.28011528709104   -6.67190309857398    0.92374437285013
N         -10.43422680114060   -5.87416224781036    1.73080739653459
C         -12.57928852511993   -8.01449136735675   -0.14174976491081
N         -13.61660173976499   -7.73739663522741    0.25665466043222
C          -9.83077306387278  -10.55982401868351   -2.99498914355138
C          -8.51293788657264  -10.87395878241096   -3.40913233588714
C          -7.34970811627433  -10.21749700881709   -2.85073657883874
N          -6.22234274449558  -10.67862140677865   -3.39155871371493
S          -6.57277113315830  -11.80817843023193   -4.47664538212639
N          -8.17031702334875  -11.77821424015445   -4.32611363276015
C         -10.99059280571142  -11.16625308405064   -3.53696176002611
C         -11.05157190722292  -12.11273595419883   -4.55868239467645
C         -12.33826832616462  -12.51481925225917   -4.87578725335890
C         -13.28570576896162  -11.85490056109924   -4.06606534058803
S         -12.58174886960399  -10.75445100043011   -2.94752193860526
C         -14.62967016912733  -12.20043575447439   -4.30592144405072
C         -14.84371444297346  -13.16338726025041   -5.31428743783466
Si        -13.20456261702678  -13.66454203329712   -6.07718852817795
C         -13.07802086790606  -13.11467772124005   -7.86021175977140
C         -12.77784198865373  -15.46747690798298   -5.80838959277635
C         -16.19276189108944  -13.39781517668537   -5.50423798195064
C         -17.02351409931736  -12.65181604489351   -4.66755716475478
S         -16.08030258931269  -11.64538375470027   -3.58779571138832
C         -18.42299713049260  -12.66223926586832   -4.54677960557004
C         -19.36808392805075  -13.14694818588208   -5.41043882489653
C         -20.71621452897991  -13.47170812002850   -4.87916422980313
O         -21.16227642009822  -13.18144780817015   -3.79382215940038
C         -21.36753688043685  -14.27137937563228   -5.94257113430747
C         -20.52912804869414  -14.31859140626513   -7.07090940825094
C         -19.33814359569977  -13.51001717545397   -6.80615188017168
C         -18.50867937740066  -13.00131825689328   -7.77476331413412
C         -18.58073815809421  -13.35242460941356   -9.13743430847954
N         -18.57262076924600  -13.62254383972300  -10.25351149789501
C         -17.53392845042265  -12.01130530417814   -7.54261607891423
N         -16.74617368963064  -11.18462410443127   -7.42395318907905
C         -20.92066224985874  -15.04012168420192   -8.18824618009336
C         -22.14173025803208  -15.69757915572114   -8.16333371770775
C         -22.95933363740855  -15.62822656289369   -7.04323819836311
C         -22.58691438679531  -14.91458643371528   -5.91127485027763
Br        -24.62693121190896  -16.53813165338159   -7.06020031577085
H           0.05181639506505    0.99985658125850    4.88998699101509
H           2.42590927960862    1.44052846427914    4.48931331173166
H           2.73585008201752   -2.05754777529236    2.02107663907008
H          -3.43306692345874   -2.75946814414861    3.02075984957099
H          -0.90885627080361   -5.02340512802188    1.00595003547132
H          -2.08589801903738   -6.19271788107113   -2.91541548264622
H          -1.44679795747197   -7.80525011144208   -3.15384642043874
H          -0.50722938458556   -6.61165850157965   -2.28739675201652
H          -1.81642237912077   -9.25253656638539    0.93382104205082
H          -0.32903265756102   -8.64298034832508    0.24191685197108
H          -1.28443732047074   -9.81494323869582   -0.63643002799443
H          -4.68053095161605   -9.50422088836629   -2.29757520414146
H         -10.16191262382799  -12.47700582371782   -5.03806016361075
H         -13.44641838400987  -12.09943581218255   -7.99805360575756
H         -13.66267570277963  -13.75377004147463   -8.51930445804132
H         -12.05252793965844  -13.13832007638457   -8.22352977087250
H         -12.87736407865358  -15.76721517156982   -4.76667541231801
H         -11.75360428961219  -15.68293053118971   -6.10550265340954
H         -13.41973790686947  -16.12370793010530   -6.39273896534611
H         -16.57636916009666  -14.12561346137285   -6.19741042514818
H         -18.82275078753020  -12.30262952537911   -3.60307694223652
H         -20.29719600505608  -15.11020959824464   -9.06472425159166
H         -22.46097557478314  -16.26827303708974   -9.02180853993003
H         -23.21909993163240  -14.85902002029550   -5.03875092230722
