91
 SCF done       -191.638179361371          0.000824418173
C          -5.97166366864375   -2.29315712384782    3.83002907880556
O          -5.76522362899141   -3.49100996384867    3.87592029456750
C          -5.74471776499606   -1.32748344375628    4.92592420626724
C          -6.10409948507251   -0.03895809175514    4.49411701682275
C          -5.96593304733902    1.03375590283055    5.36298399094256
C          -5.47822625713152    0.80117829584460    6.64069551441943
C          -5.13446816330554   -0.48156538156913    7.04515100001177
C          -5.26053000775525   -1.57121209825168    6.19367552227166
Br         -4.47583614387091   -0.75093911538960    8.80656971920993
C          -6.58472900531395   -0.12261150610515    3.11480080233058
C          -7.06508317557305    0.93468564126855    2.38446669781538
C          -7.13675384668765    2.25941678348178    2.86456278350665
N          -7.22366444289244    3.35638191637828    3.19170789334482
C          -7.56595106966510    0.86995415112464    1.06774366381224
N          -7.98969932426066    0.90908035294544    0.00037812139604
C          -6.47978459994535   -1.50756384200988    2.70145256381599
C          -6.78051733138120   -1.99628740347195    1.45284384054666
C          -6.72969734690691   -3.29885810230102    0.94220189278822
C          -7.07910611450836   -3.56699651269042   -0.38966102771447
C          -6.97579063658036   -4.90833185151501   -0.69225014712764
C          -6.54391281323239   -5.69771022412667    0.41401627388980
S          -6.26154543925088   -4.75358438659647    1.82404487349588
C          -6.49126316756836   -7.01060344537931   -0.04149501485574
C          -6.88804566200947   -6.99010209230636   -1.40542215273094
N          -7.18797893724604   -5.70924923928810   -1.78471023631338
C          -7.58960562560998   -5.26654188080314   -3.09101963498605
C          -6.88473372235103   -8.24282106975933   -2.00257524135368
C          -6.49253427191225   -9.23638933316953   -1.11403812965560
S          -6.12011375463817   -8.60873926076257    0.48880467898972
C          -6.37526025819871  -10.63463508042376   -1.35209999803828
C          -6.62772130764237  -11.27155706415879   -2.59351841575361
C          -6.51358817785044  -12.69917450032115   -2.77038515924032
N          -6.76144948783861  -13.22475103388146   -3.98882005536228
C          -7.09943249100720  -12.45828679790120   -4.97267917814588
C          -7.21982636272286  -11.06117363808716   -4.79724279052478
N          -6.98816001652409  -10.51309104070714   -3.65015868115181
F          -7.57344940800194  -10.25678471722749   -5.80156021319268
F          -7.32524392046224  -13.03810537346747   -6.15306495484779
C          -6.14905213226182  -13.57084349365316   -1.71374278295129
C          -5.87857137606839  -12.92903063605207   -0.48485181198833
C          -5.98691544263396  -11.50580062375991   -0.30952807220729
N          -5.68446543431066  -11.14128264591514    0.93632980846463
S          -5.30453645698425  -12.44002424142961    1.79677977674564
N          -5.50233726862283  -13.53464480409500    0.64150002092366
C          -6.05647563370090  -14.98748170033755   -1.81957206138018
C          -6.30973705774511  -15.78431368589085   -2.92764682971706
C          -6.13177684804525  -17.13230044045639   -2.64579761572639
C          -5.73549502110331  -17.38191758241422   -1.30464367616171
S          -5.58421734287120  -15.92038795948004   -0.40185046845476
C          -5.61458512696376  -18.76034897491779   -1.17929355864598
C          -5.94208815943864  -19.31675971470030   -2.44795560390649
N          -6.23940375591551  -18.31327058931078   -3.32948529274412
C          -6.68443785547347  -18.49328607625720   -4.68358381842440
C          -5.90835644969350  -20.70166020421477   -2.47493055651398
C          -5.55821374476178  -21.23352406146086   -1.23736606006994
S          -5.22751636284979  -19.98098019367155   -0.03747042333418
C          -5.38519693070068  -22.57271749362782   -0.85053657844436
C          -5.79102250866745  -23.73032630541268   -1.45802181337735
C          -5.10909969902425  -24.99677990766680   -1.08658615298119
O          -4.35130512586861  -25.17240821285180   -0.16120456053130
C          -5.51890288484663  -25.97547174647759   -2.12004356869571
C          -6.46296053106374  -25.38119163175060   -2.97646084489832
C          -6.74839727749854  -24.02846577443780   -2.49489931242514
C          -7.87755601179211  -23.31423875870725   -2.81082205389295
C          -8.80625056164480  -23.70304039756865   -3.79681553081940
N          -9.58177157758051  -23.95015538991006   -4.60681627887919
C          -8.28994268773097  -22.14610781161489   -2.14091566564236
N          -8.69592085712302  -21.20799934134329   -1.61794855342970
C          -6.97066885733562  -26.10263574359280   -4.04609157408161
C          -6.53513928634114  -27.40535988649373   -4.23866516916829
C          -5.61355791629016  -27.97791155838615   -3.37225752792587
C          -5.08671218681593  -27.27287575055150   -2.29769829449774
Br         -5.05808639209928  -29.77046918516706   -3.66834533003199
H          -6.22439891888756    2.03837477095037    5.07212498947142
H          -5.36472619327755    1.62532725463772    7.32808852593913
H          -4.99426360463260   -2.57066256992033    6.50074062180914
H          -7.11320670978726   -1.27043905858739    0.72056433890547
H          -7.38763082426642   -2.79085776961227   -1.06679880338525
H          -7.90211101196452   -6.12651770801665   -3.67912234981394
H          -6.76456873841418   -4.76560793480749   -3.60517629827074
H          -8.42439708817688   -4.56930950434045   -3.00673984061934
H          -7.14458066119862   -8.45780720092193   -3.02014901879411
H          -6.60965144331651  -15.37075122144090   -3.87011568690642
H          -5.95475335310314  -19.07928263840160   -5.24636806157274
H          -6.79615286429390  -17.51947853832893   -5.15401166029033
H          -7.64571487417233  -19.01300958767753   -4.70559749372104
H          -6.08099871026490  -21.30486390605870   -3.34753529154897
H          -4.77775710681517  -22.72846516018550    0.03658033385784
H          -7.68308087641648  -25.67403833350900   -4.73209983461720
H          -6.91637511228549  -27.98102244722577   -5.06805300101007
H          -4.36919926197311  -27.71392435188516   -1.62340303176065
