85
 SCF done       -181.420174799766          0.000991191307
C           2.23578424649444   -6.77038162044245   -8.05075100293940
O           1.28066224086757   -6.78205422992741   -8.78818088826590
C           3.65565125143281   -6.87507885373699   -8.43837702327849
C           4.47704596183423   -6.67663831352808   -7.31324366701992
C           5.85771578040754   -6.74988447332786   -7.45600256621467
C           6.38625318705916   -7.01234029944880   -8.70897031270482
C           5.55498203410349   -7.19628606247424   -9.80968656524445
C           4.17278846057381   -7.12939196221050   -9.69224781884693
Br          6.32989099743487   -7.54706140650610  -11.50336908404298
C           3.63894066231316   -6.40872382531830   -6.15172741983525
C           4.09184010112589   -6.04845471881007   -4.91266727050187
C           5.45971294244010   -5.92108266578615   -4.57687229637180
N           6.54711842386306   -5.79461380615864   -4.23511398581843
C           3.29925179699242   -5.70332765906942   -3.79767595567653
N           2.75177266416588   -5.38639786836938   -2.83902028655848
C           2.24683332417043   -6.56346850605002   -6.56855465150020
C           1.16856398871828   -6.47094225992051   -5.75729989866261
C          -0.21552557126061   -6.70564242803974   -6.08000306603583
C          -0.67696392230567   -7.64118812312258   -6.94302592127546
C          -2.05310765138939   -7.93638707349765   -7.19112133019232
C          -2.37367292977415   -8.94946309109294   -8.09025224246479
C          -3.69294531832391   -9.37062220025030   -8.33058938224653
N          -4.75572420961457   -9.76522322781223   -8.51235961357957
C          -1.38413598521227   -9.66538939185322   -8.78516993292767
N          -0.57702781273071  -10.26537642572954   -9.34047645778809
C          -3.08472754036373   -7.25316062408701   -6.48770663752592
C          -2.87114565157620   -6.30467747683065   -5.53484673799978
S          -1.27847182810906   -5.71082798731673   -5.09953095881874
C          -3.91924094306310   -5.75397202520508   -4.74112660896144
C          -5.30409430091665   -5.92011972926246   -4.84997889245206
C          -6.02701473757699   -5.34866253435412   -3.74204774291572
N          -7.35325109099688   -5.48626522303611   -3.64393306138254
C          -7.96403535647664   -6.11148357993041   -4.62352000424134
C          -9.43356336777543   -6.32433996156937   -4.48148767814578
O         -10.03747523210302   -6.01338253611032   -3.48204158834366
C         -10.08305689948071   -6.96831934972890   -5.63893175904828
C          -9.43152223643473   -7.34714140823910   -6.74269768684290
C          -7.98440004685366   -7.14889409617751   -6.94720191182884
O          -7.43033189297492   -7.38928923040482   -7.99353602471370
C          -7.25806019260707   -6.58442839461961   -5.77279768429462
N          -5.95108139196769   -6.50741928936468   -5.86174863900080
C          -5.18832940354041   -4.71718380521136   -2.81805729370211
S          -3.54351704392655   -4.83222099333940   -3.33264350447712
C          -5.47885342055056   -4.18745877000379   -1.53037768410460
C          -6.68799279824185   -4.26364666573430   -0.91636733500235
C          -6.89659222430991   -3.95770354999337    0.46233966162486
C          -8.18051489674339   -3.85072777778963    0.97677090528235
C          -8.41624932203969   -3.62470261562804    2.34460699105489
N          -8.60670651121684   -3.44688690654711    3.46299372146812
C          -9.33325210630293   -3.87743374537354    0.17000975405938
N         -10.29287988158958   -3.86574971839538   -0.45886661770486
C          -5.77048694163916   -3.86220555034206    1.34571532701295
C          -4.48158124414724   -3.74209233234715    0.94915792773901
S          -4.07115077786148   -3.47826721815201   -0.74051160352341
C          -3.37684896908430   -3.72728520130657    1.87061161586520
C          -2.09546213265814   -4.09866475181376    1.65266099072253
C          -1.03712537300143   -3.64544591093459    2.61629124761907
O          -1.21489050695270   -3.22155409681311    3.72888358211663
C           0.22981411436158   -3.77684282863046    1.86953392036720
C          -0.01109495914970   -4.40743597647948    0.63204140359362
C          -1.41979258620783   -4.76724305999268    0.55000654848294
C          -1.94582885338870   -5.72990220817899   -0.26728599640056
C          -1.23862419953225   -6.36267008933410   -1.31093136890172
N          -0.74263799277172   -6.88817279280988   -2.20292835823198
C          -3.25670315010674   -6.23565413182007   -0.12943338444452
N          -4.30339137926479   -6.69621350466605   -0.03016535504605
C           1.03773597430041   -4.61407620095669   -0.25253987748917
C           2.30744848557312   -4.19761657929774    0.11221248121102
C           2.52906608980511   -3.58934234054409    1.34264778639509
C           1.49354918683153   -3.36602645749103    2.24245488170803
Br          4.28765457694195   -3.04681098278848    1.80228298446712
H           6.52291118955011   -6.61167218552769   -6.61982340660546
H           7.45608980843025   -7.07448997099119   -8.83587976696754
H           3.51904513678225   -7.27476470753903  -10.53824670174208
H           1.32225358344850   -6.17104604062610   -4.72726135387871
H           0.04453192244370   -8.25214742332432   -7.46662410814245
H          -4.11119082389599   -7.53046641613969   -6.69307829940872
H         -11.14898809814037   -7.11939505380050   -5.53414375682952
H          -9.94839381589205   -7.81312161133983   -7.57061660694425
H          -7.52211255888015   -4.64734701307327   -1.49042712247170
H          -5.97026113453435   -3.95389191384516    2.40571610862723
H          -3.58302101408571   -3.31792084321278    2.85505739661112
H           0.89571416383322   -5.07466762772878   -1.21617179971395
H           3.12717635495763   -4.35164984769238   -0.57232613826698
H           1.66177157768052   -2.89283864345182    3.19739446069041
