92
 SCF done       -197.559873362487          0.000899693673
C           0.75785260608601   -4.83037237082061    3.94079085199381
O          -0.23642981231887   -5.16144439633714    4.54421804320672
C           2.09052204651790   -4.61271506646143    4.53544842591146
C           2.94321071319949   -4.01922511930956    3.59076082906708
C           4.25655760393205   -3.73742168407437    3.94254072006244
C           4.68827094675906   -4.06530125489676    5.21898327784668
C           3.82125453299199   -4.65329788683171    6.13140538164602
C           2.49969586048391   -4.92976874079538    5.81403409387166
Br          4.47272924638903   -5.11002587613662    7.85249174575212
C           2.20063759531830   -3.82664993255419    2.34719904167953
C           2.65182212219012   -3.12058148124321    1.26455183853677
C           3.91880150207306   -2.50007043256285    1.20390927544503
N           4.93184876405571   -1.97263769339429    1.09352306933787
C           1.92268906585345   -2.86231856579508    0.08356786561434
N           1.39447056299722   -2.59689431880596   -0.90093846776731
C           0.90303991810802   -4.47185798189995    2.50473803747755
C           0.05041990166681   -4.73905085898637    1.47079338391576
C          -1.14000174336144   -5.49655170941212    1.45291653474289
C          -1.77837921151355   -6.22050773636489    2.44955603770060
C          -2.87199044971018   -6.92182013077972    1.96805587023104
C          -3.10332502805480   -6.72439308116149    0.59076149433772
S          -1.95773262309810   -5.68632163877774   -0.10633514627782
C          -4.20459674018427   -7.54406537047124    0.20980017368609
C          -4.66426416716152   -8.22962538082195    1.34256459694860
C          -3.83284755931681   -7.88603747639832    2.47627784755773
C          -3.83212364239624   -8.46019698406838    3.71590685527724
C          -4.77366454493145   -9.44140458378229    4.08375514626395
N          -5.52744266539639  -10.26432556130433    4.34958141469560
C          -2.79156112071090   -8.21151678208523    4.63389552807906
N          -1.89171191237560   -8.08742508306155    5.33321025829466
C          -5.67406974297933   -9.15689986539178    1.04287366367401
C          -5.96479512220477   -9.17209392541253   -0.29283732378384
S          -5.01348866907286   -8.03455164896670   -1.21180559711584
C          -6.85229869987921  -10.15003696714416   -1.01058300892005
C          -7.63325490497892  -10.95217481661483   -0.02025992522854
N          -8.80026030598086  -10.59352761672078    0.46687310242796
S          -9.29351337739737  -11.70275688308305    1.54305287200673
N          -8.01069458872660  -12.68311630046887    1.40274128178751
C          -7.17174854996322  -12.17659324924620    0.52653685958261
C          -5.86842773702421  -12.82470007371015    0.15747393005039
C          -5.47216857687687  -12.31212744269613   -1.18998483610898
C          -5.94868778801367  -11.09764906658569   -1.74511750102692
N          -5.46375185929655  -10.86689964379907   -2.94465040646686
S          -4.47723660090069  -12.08325560804989   -3.36366182222549
N          -4.65263958355121  -12.94473277879217   -2.00118473995685
C          -4.83192437435176  -12.49953788006630    1.19721188883534
C          -3.79951540606606  -11.60662646978841    1.11419721626755
C          -3.06171447434548  -11.55151602144116    2.31123594266029
C          -3.56275574880367  -12.42151869037049    3.28728763978316
S          -4.92924582814704  -13.28541411076570    2.75023847225269
C          -2.75602004459948  -12.30538242840449    4.45654979392840
C          -1.76628669761646  -11.33484264324559    4.21703910049168
C          -1.92051696973811  -10.83813182472717    2.85724386158823
C          -1.15298301620076   -9.90277361014274    2.22287450468564
C          -0.08193809010157   -9.22478774596080    2.84144016152251
N           0.79650269603380   -8.65293802691209    3.30694358779689
C          -1.40125685526955   -9.53737111538534    0.88514327060031
N          -1.61371039505853   -9.23239113355969   -0.20054463386075
C          -0.91343265608162  -11.15246289634154    5.30202314726240
C          -1.22191402051147  -12.00059262318865    6.35494560123901
S          -2.61090034283338  -13.01407891091078    5.99059278995550
C          -0.49966965736579  -12.23038586739837    7.55388248872749
C           0.39921108801805  -11.41537317437912    8.16436184057667
C           1.41945620495224  -11.98952118159342    9.08541590687051
O           1.41737085973500  -13.09178574988899    9.57788983709873
C           2.45504619297941  -10.93854072683184    9.19923662607798
C           2.03216802367961   -9.77659898482180    8.52386358119890
C           0.68270604918522  -10.00069406473526    8.01449821720803
C          -0.25272358872323   -9.03838127730273    7.74202708001278
C           0.05223017558296   -7.66397473599330    7.69871047750574
N           0.31759030845185   -6.54834628297095    7.67114083081115
C          -1.61787974210284   -9.37586433502175    7.62276808724396
N          -2.72390980687111   -9.68256243069852    7.62678310322104
C           2.86166919624344   -8.66621791823049    8.47943523343150
C           4.09268078900823   -8.72533921840748    9.11374758598226
C           4.48497769041900   -9.87602959324542    9.78614600567741
C           3.67576150558475  -11.00336651907714    9.83969541438539
Br          6.17454535359613   -9.90782946712772   10.64981630937399
H           4.94724376516791   -3.28378468303739    3.25110457564810
H           5.70925263120951   -3.86363480032980    5.50579576074801
H           1.80777517273677   -5.37642032396472    6.51442513081163
H           0.34341161068173   -4.37807530347297    0.49211062040307
H          -1.44508966957158   -6.22070008299091    3.47094295258552
H          -6.15977472294272   -9.77844514294883    1.77229615750035
H          -7.51130272437303   -9.62562464352279   -1.70843896140717
H          -5.99905669686574  -13.91207144150075    0.12424771485385
H          -3.56944929611911  -11.03894076244823    0.23103284913827
H          -0.08068853090948  -10.47264856644009    5.31478939806232
H          -0.60192155515622  -13.21948356130204    7.98913481256610
H           2.57436515021776   -7.76848534618733    7.95803761582000
H           4.74848798977879   -7.86857618666992    9.08906611576855
H           3.97912279540988  -11.89795043011141   10.36109371099477
