100
 SCF done       -234.207170557534          0.000846747193
C          -3.33696377847806   -0.69558222536907   -2.52749451142230
O          -3.46884911887390   -1.77649666413829   -3.07062688419653
C          -3.14149708987803    0.60361251575843   -3.19769876929119
C          -2.99157099134885    1.61168645975351   -2.22820633054421
C          -2.80837615916856    2.92599632780732   -2.63452237633243
C          -2.77697558641203    3.20755052024177   -3.99192930042675
C          -2.92280572716677    2.19429524437073   -4.93142228283184
C          -3.10783519188936    0.87174193678879   -4.55045472942751
Br         -2.87338599963444    2.63021499294083   -6.77822173881985
C          -3.07097390199637    1.00492875253029   -0.90113285848270
C          -2.85934519254788    1.65807622235617    0.28280291782117
C          -2.56876470081436    3.03639292296231    0.38250753295137
N          -2.33349980374229    4.14989949242162    0.52815836585342
C          -2.86473309998917    1.05821686529139    1.56112756630225
N          -2.83590590580554    0.63978482213986    2.62958945918492
C          -3.35461669196003   -0.40890382666866   -1.08746852435816
C          -3.68553809307055   -1.30085684391184   -0.10232139885037
C          -3.99235769660999   -2.67032686880860   -0.18349810732426
C          -4.42362209982705   -3.39366204390536    0.93529159159678
C          -4.67607898274692   -4.71958414535663    0.63963232358808
C          -4.40834596809482   -5.02691917923429   -0.71665748504779
S          -3.88989039839750   -3.68347223428332   -1.62195258002914
C          -4.70656782222019   -6.39597658230807   -0.93208977496908
C          -5.16824950290524   -6.94624427325191    0.28488577316890
C          -5.15064172847557   -5.91786705515151    1.31291553930695
C          -5.49998827350608   -6.05505834121504    2.62329888044672
C          -5.92308970334614   -7.29333611341963    3.15259165421612
N          -6.25492173235030   -8.30553899587170    3.57596920205773
C          -5.45315931403295   -4.97576213668524    3.53141215494642
N          -5.42477843351204   -4.10452696145140    4.27563541676426
C          -5.52053163967386   -8.27773414741262    0.15705083026023
C          -5.31080883738859   -8.76039776733366   -1.13646526761095
S          -4.64801347145504   -7.52807293898855   -2.20406448546229
C          -5.65644960760003  -10.07476819297930   -1.52934931219767
C          -5.41698044830455  -10.80767401006376   -2.69183183256020
C          -4.68445057186856  -10.29557978009648   -3.82624790103485
O          -4.27288143908807   -9.14718300502258   -3.91961114330156
C          -4.47308095968994  -11.27566991020190   -4.90533916527089
C          -5.01345565722237  -12.58719232465438   -4.86201463073832
C          -4.70013906681541  -13.30711315371735   -5.99193830485548
S          -3.75052990485695  -12.41386658009200   -7.10909426998781
C          -3.76717312976839  -11.05122235409419   -6.06463381663022
C          -3.04583984876224   -9.80268889925288   -6.47177035206576
F          -3.86511177152642   -8.76113965048986   -6.63399309324265
F          -2.10077363345803   -9.44701871677173   -5.59713614798002
F          -2.42288827541080   -9.98173937089500   -7.65008731519149
C          -5.08891027669626  -14.71667844940806   -6.31843450598955
F          -4.60547034933836  -15.60162111433514   -5.44231155682365
F          -6.41212085509035  -14.88581070409650   -6.38102213744668
F          -4.60437184410419  -15.07244106193073   -7.52145400209353
C          -5.80256764636382  -13.08205967834807   -3.72159117157749
O          -6.25269381197041  -14.22061123127379   -3.70572795510970
C          -5.96611051596458  -12.12940042479110   -2.65024753026911
C          -6.65980082935093  -12.40139955810008   -1.46962178323251
S          -6.57336365838237  -11.03029103475752   -0.39227089005937
C          -7.41089135875926  -13.51802008833728   -1.03608809789102
C          -8.11169152850433  -13.53285078541325    0.17256439116245
C          -8.81588860691605  -14.70762513090417    0.35971142958153
C          -8.64580871344979  -15.60956043916709   -0.71480189627101
S          -7.62961646364908  -15.01078552172896   -1.94432830989213
C          -9.42375127799457  -16.76371345389122   -0.44269638951969
C         -10.07565510638194  -16.59013902359562    0.79593630538855
C          -9.72651654455325  -15.28808039629660    1.33407093103490
C         -10.20840496187267  -14.71802060790259    2.47519017225024
C         -11.13098896385196  -15.39769620294419    3.29847983835235
N         -11.88198627878017  -15.96840161606051    3.95043422163256
C          -9.82806982110484  -13.42149007543425    2.88182997684801
N          -9.51364673541980  -12.36677841624356    3.20152724109784
C         -10.90524453689348  -17.65348875735977    1.12559410665669
C         -10.90502173665933  -18.63783043569365    0.14769381958461
S          -9.81755282152765  -18.24534992689278   -1.17800904665936
C         -11.61769711141666  -19.85825012003349    0.12280762523100
C         -12.72700020116193  -20.21140347867592    0.82736098796079
C         -13.06060315192253  -21.66046000038746    0.95135446020582
O         -12.58510659882413  -22.56743559245726    0.31261372827789
C         -14.04501300604288  -21.73388235337476    2.05179022951264
C         -14.38376583763786  -20.43238716439093    2.46662487535566
C         -13.69331930098727  -19.46793545514353    1.61253518020035
C         -14.09319083968814  -18.17224907182142    1.42143814082336
C         -15.14644717513773  -17.56127232725376    2.13667618537500
N         -15.99529834686007  -17.01887497810769    2.68494849512514
C         -13.57473459359761  -17.32076215952261    0.42571266811755
N         -13.20614193720885  -16.59976367522215   -0.38801617355231
C         -15.26443549910683  -20.25324169421474    3.52326108006976
C         -15.80391529827205  -21.37325111355105    4.13670833575036
C         -15.47327492318239  -22.65000568609168    3.69837290357102
C         -14.58432224678509  -22.85373836100291    2.65086508813076
Br        -16.25072993963871  -24.15221395103815    4.55954833508838
H          -2.69629283524189    3.72923373293470   -1.92528852508923
H          -2.63885056447064    4.22498916456852   -4.32399854938290
H          -3.22343645581280    0.08003658408066   -5.27428893604961
H          -3.75725298728860   -0.91235862317404    0.90677469365032
H          -4.54302122445878   -2.93826137059784    1.90255442592129
H          -5.91028555295002   -8.89174954885751    0.94999057387797
H          -8.10082780458280  -12.70615145767309    0.86125003711061
H         -11.45614090776673  -17.73879095375943    2.04443402850483
H         -11.20034500657775  -20.64680291293792   -0.49621970415828
H         -15.52396080434231  -19.27079531996111    3.88260627707916
H         -16.48808722405756  -21.25468262042990    4.96276469708941
H         -14.32034041580254  -23.84350713628145    2.31216714795009
