75
 SCF done       -157.949250655049          0.000788162784
C          -7.41418394382268   -8.24192382974793   -5.63551182465590
O          -7.47177967825963   -8.50649577962346   -4.45791189809188
C          -8.39969648819628   -8.60536164500312   -6.67483342868432
C          -7.96979236865235   -8.13919611944231   -7.93091777476628
C          -8.75990860263867   -8.36305564569137   -9.05134345860447
C          -9.95470439605323   -9.04777797065222   -8.89951356085791
C         -10.35735709347755   -9.50553991057762   -7.64970848174443
C          -9.58721968658765   -9.29072884133526   -6.51488163379433
Br        -12.00017134376407  -10.44238232612701   -7.49413459188995
C          -6.68584630886613   -7.46834284939642   -7.77472919427022
C          -5.87921002770385   -7.02299892548687   -8.78309559041518
C          -6.21302300300232   -7.09934603414887  -10.15339161852207
N          -6.43582542727142   -7.13633701431817  -11.27800217639378
C          -4.59121624800456   -6.47288702406712   -8.59440556874086
N          -3.53069610898480   -6.04250902201253   -8.51580040904811
C          -6.37721396763322   -7.43799147328515   -6.34878893942416
C          -5.45576992597598   -6.66052494075902   -5.73929118853368
C          -5.18520160980610   -6.65436055332989   -4.31657509700117
N          -5.11331257517689   -5.45152137083457   -3.73647663930471
N          -4.88210805994243   -5.32931520214738   -2.48842988234182
C          -4.74474450616394   -6.39594444929328   -1.69228345553070
C          -4.78507480725606   -7.70154538743344   -2.21489756039439
C          -4.97381380779281   -7.82756389214364   -3.57008885907126
C          -4.52393006355412   -6.10993752472121   -0.30540916653625
C          -4.16289140193561   -6.98849970517592    0.71936153286752
C          -4.00817633749846   -6.31568357416750    1.98609564264974
N          -3.67490181188851   -6.99571690068608    3.08878624777034
C          -3.49479797900576   -8.29091965243310    2.96291654824775
C          -3.12798440638608   -9.03935010126091    4.19485175782394
O          -3.02149531081927   -8.50198462837461    5.27508757995183
C          -2.90443395580113  -10.48440341362340    4.00400136907275
C          -3.02983840772516  -11.10431668312650    2.82676267824747
C          -3.40947935294189  -10.41891658366439    1.57712501717621
O          -3.53696921800992  -11.00783206013881    0.52629368268297
C          -3.63226790187845   -8.95450163429969    1.70504187608543
N          -3.95800993391692   -8.30531977372352    0.60970470332262
C          -4.25990526342893   -4.94501614291008    1.89207707722042
S          -4.67234890858364   -4.49778437881913    0.28114996382050
C          -4.21761007689973   -3.95087020883436    2.92311978223284
N          -4.58706532730730   -2.72108998597216    2.54773884677484
N          -4.55601672551750   -1.73736695298695    3.36481828061967
C          -4.13664832630636   -1.89978759535549    4.62570254081051
C          -3.78309644681914   -3.16927012165934    5.11706351262835
C          -3.82576285071262   -4.23024738331764    4.24605214872771
C          -4.12483554155259   -0.73105762443585    5.47260174895148
C          -3.97946187093216    0.55200274210132    5.08401734984283
C          -4.36105281895586    1.65825536973436    6.01480994803327
O          -4.52649843837045    1.57662142209463    7.20630423073182
C          -4.54519701075726    2.83521077693372    5.14043659944192
C          -4.15667495518874    2.51486492474395    3.82479674626522
C          -3.64493358862600    1.14892343797545    3.79811972865899
C          -2.81162638394799    0.62878727986996    2.85146250697120
C          -2.44497176420663    1.31063756237652    1.67089212289633
N          -2.11919731323442    1.83034957591012    0.70187214013998
C          -2.14229488259295   -0.60700752663899    2.98929622292306
N          -1.52721859640317   -1.57131085277684    3.07886395541197
C          -4.28082566450055    3.46527323309702    2.82060362182800
C          -4.77689194070297    4.71741468925542    3.14589176560009
C          -5.13957088356927    5.01901364607623    4.45409074232868
C          -5.03311727607570    4.08308050163472    5.47373476399669
Br         -5.79975319394568    6.75317344828760    4.85207841072684
H          -8.46889930247462   -8.01202130335808  -10.02774018821110
H         -10.58183150990654   -9.22835273920730   -9.75899239301378
H          -9.89518265537612   -9.64048601262190   -5.54170831230727
H          -4.90352912060338   -5.92459829781416   -6.30944969860618
H          -4.65292248934386   -8.55116633099200   -1.56418553212497
H          -4.94772021327929   -8.78942149277808   -4.05556768184571
H          -2.62770590480646  -11.02560678861986    4.89879138324366
H          -2.85874192373848  -12.16802096610290    2.72971418565791
H          -3.46673312770022   -3.28983492844920    6.14157634564565
H          -3.56870401081958   -5.23646257260958    4.53591887483566
H          -4.32234494078770   -0.89618731835130    6.52632348436477
H          -4.01310418887316    3.24436172819944    1.80015670404047
H          -4.88373336030904    5.46869374863180    2.37846046015185
H          -5.31865513656594    4.31189587936794    6.48881097314523
