95
 SCF done       -197.974088647603          0.000804041571
C         -10.45418026555879   -4.87831502771939   -0.43871543678309
O          -9.68003511567028   -5.52182572124592    0.22927384204497
C         -11.93059275392059   -4.91693354118005   -0.34599747686604
C         -12.48897339528214   -3.93543622459452   -1.18289742855699
C         -13.86863983017394   -3.78481524758912   -1.23298094389056
C         -14.66067935523979   -4.61767106629099   -0.45818781899019
C         -14.08631117178295   -5.58512757542556    0.35709422701906
C         -12.70984171632640   -5.74797654747645    0.43203286112645
Br        -15.21245458226625   -6.71075155735293    1.39158969666759
C         -11.41067775951620   -3.23723142474404   -1.87722398422308
C         -11.57475191312049   -2.26292598148719   -2.82489177945491
C         -12.82951157332405   -1.75427627334334   -3.22561312261155
N         -13.81795605899249   -1.29907426202977   -3.58942298092269
C         -10.53548859373397   -1.64077913463939   -3.55178540775837
N          -9.76250244768549   -1.09343874418380   -4.19990923605064
C         -10.15182537152303   -3.81184647607900   -1.43149021137232
C          -8.90538502238886   -3.35266016156539   -1.73176622970745
C          -7.66497023238966   -3.97377608459430   -1.43666635929939
C          -7.29835192120740   -5.33657433397975   -1.35053212193138
C          -5.90794660771774   -5.36722537936172   -1.09737264553488
C          -5.51774293388872   -3.98827932095041   -1.02637109327141
N          -6.56067678514542   -3.19401470273402   -1.26628701224318
O          -4.32650774202472   -3.52958901194397   -0.72361398661438
C          -4.17018102869267   -2.11623060927316   -0.74785131631615
C          -5.56149297759076   -6.73937714767563   -0.97970607536751
N          -6.66675027404157   -7.51395882913287   -1.13980260778209
C          -7.70133012805254   -6.71272950140629   -1.38462551200368
O          -8.90529829422218   -7.14955154568296   -1.64289142851278
C          -9.09424633825187   -8.55305123818643   -1.53676424657549
C          -4.29016358128407   -7.32308904648309   -0.73186633435540
C          -3.09444670397988   -6.67599783621262   -1.12999549033944
C          -1.79621598160097   -7.18172413227718   -0.76514925928454
N          -0.69747120339415   -6.53377729237282   -1.16742614714838
C          -0.81699396575914   -5.40960477121429   -1.82646660294461
C          -2.10679414347617   -4.93470277856967   -2.23170136417533
N          -3.19040616863385   -5.59762479399980   -1.91477025874223
C          -2.22700986984767   -3.76515172597413   -3.02151693446015
N          -2.29722110107446   -2.79318023797193   -3.62370626528340
C           0.35764364097884   -4.70720743448150   -2.19608536406157
N           1.29477377596597   -4.11327006243348   -2.48073372671439
C          -1.65002611467841   -8.37865755381958   -0.01919554827215
C          -2.83768611194629   -9.05780133053046    0.31831955934073
C          -4.14384152780354   -8.54621334766998   -0.04508364011931
N          -5.12123107301027   -9.31144372822407    0.43755668961376
S          -4.47676195991921  -10.52975468011994    1.25060566918859
N          -2.93144346815537  -10.15849433615240    1.06123400882649
C          -0.36745523408097   -8.82212048114275    0.39958849910771
C           0.08123341201988  -10.13375814413974    0.69644555573713
C           1.43408609476519  -10.01079751349855    1.09185063750488
C           1.72779058747857   -8.61594576150607    0.95587157160355
N           0.65412811032569   -7.93965290728634    0.55912334607155
O           2.89684709384942   -8.05920077192147    1.17918878687028
C           2.99035212189006   -6.65410065377502    0.96920118274214
C           1.89818182847956  -11.32752453908326    1.35028900198692
N           0.90451803060530  -12.21791322130489    1.08336953631526
C          -0.18015630881628  -11.53988279479859    0.70190601056906
O          -1.29533749505828  -12.12266952788558    0.34096862764287
C          -1.33033720803039  -13.53623818240370    0.46881554550946
C           3.17475357459599  -11.82379976565439    1.70440566149538
C           4.24176151409423  -11.17670211376428    2.24768299312157
C           5.60575594775633  -11.77045790284162    2.11617830987869
O           5.87971615280611  -12.89999236458060    1.79421516433996
C           6.53314478445978  -10.65478561286663    2.41132715131083
C           5.79736445339579   -9.52784867385555    2.82383152927420
C           4.38064570914729   -9.88049584098117    2.86896479561619
C           3.41115659575630   -9.20244356286367    3.55711644390041
C           3.60416900324641   -7.93646163504568    4.14560199046092
N           3.69296648944634   -6.88443888443989    4.59613168086911
C           2.12110596304458   -9.71325119854924    3.81637441233542
N           1.07891706204134  -10.08286543441145    4.12210964399415
C           6.45869351029399   -8.34663413104915    3.12506137886212
C           7.84064524307472   -8.31072783619233    3.01786929058573
C           8.55001224766435   -9.43853536090113    2.62328409320965
C           7.90900724899319  -10.63058918419079    2.31096162193225
Br         10.44226660554443   -9.34356542133955    2.50385206900324
H         -14.33601937604280   -3.03815046587773   -1.85335431098720
H         -15.73447580901682   -4.51409258534809   -0.48661479018475
H         -12.25697423386457   -6.49235652695752    1.06842513000358
H          -8.79810537435242   -2.39535617414993   -2.22788031065889
H          -3.23548356617093   -1.90276880463152   -0.23323178856524
H          -5.01226812941293   -1.63480930070304   -0.24965391864649
H          -4.11816281158917   -1.76538505233220   -1.78064116786771
H         -10.12729890272830   -8.74354834317257   -1.81952467395042
H          -8.90627608762464   -8.87828467051808   -0.51240643354533
H          -8.40483417577169   -9.07786806514691   -2.20019894286296
H           2.34360606541634   -6.34955119971396    0.14673112116756
H           4.03495496380544   -6.44545374294012    0.74635998792548
H           2.69139317569479   -6.12853088044765    1.87878561909908
H          -1.24123005584960  -13.82188097479841    1.51830277998207
H          -0.50663229979680  -13.98904060754190   -0.08598443442896
H          -2.28915166575011  -13.85457908357625    0.06562094182369
H           3.34080557838109  -12.86209665091467    1.43360872939542
H           5.92346457492959   -7.46163531554455    3.42856624845600
H           8.37315000027427   -7.39960805753016    3.24389960733401
H           8.45670273857322  -11.50713631478174    2.00134091904593
