95
 SCF done       -205.085823171025          0.000815089069
C           2.61332476045238   -9.06047767046538   -6.87493546945169
O           1.89751553250279   -9.77032469137505   -6.19217674473403
C           3.45485573944277   -9.49534715605478   -8.00528523157929
C           4.11889540830882   -8.38048787318253   -8.54774883155330
C           4.97964967766782   -8.55740299423380   -9.62190564131709
C           5.15898059928374   -9.83449241352059  -10.13188591717142
C           4.48918122220579  -10.91990420449091   -9.58128845213811
C           3.62334833500022  -10.76954477416710   -8.50601471422516
Br          4.76708153337593  -12.64857192520362  -10.31511788694113
C           3.72725372925232   -7.18713025340940   -7.79918876062175
C           4.13786097480496   -5.91092053513357   -8.07814261587759
C           5.02154553912092   -5.57681669947530   -9.12766608712129
N           5.73579254216363   -5.23896390856068   -9.95992689295161
C           3.74181248518800   -4.74675852498016   -7.38467271543903
N           3.46410750750911   -3.75351997056657   -6.88019448583902
C           2.82444680281525   -7.61478102058513   -6.74390370925099
C           2.29937469763080   -6.82026867247312   -5.75727969688465
C           1.45633066775858   -7.14316320149514   -4.68214424251361
C           1.09439143244601   -6.18597045081010   -3.72392408483598
C           0.29077203064510   -6.71001741969328   -2.73180248130882
C           0.01236554218829   -8.08531384068315   -2.93630501574936
S           0.75192385520273   -8.72181213322117   -4.33147526884056
C          -0.78597466917421   -8.53950993887689   -1.86081473633469
C          -1.00484852275819   -7.46069661957212   -0.97348494924040
C          -0.34576342798322   -6.27624854562573   -1.49840815225568
C          -0.32411711509301   -5.03145203637110   -0.94229943487628
C          -0.97830380160698   -4.74891593583384    0.27563730171081
N          -1.50752532305105   -4.52533974433018    1.26782851411830
C           0.35370580011659   -3.94836095269681   -1.54174004363807
N           0.90434619948759   -3.06518167212653   -2.02144040594487
C          -1.74770260732560   -7.82269744500666    0.14100942526826
C          -2.09771803661362   -9.16800472750911    0.10275590760206
S          -1.51465674756900   -9.99342828818787   -1.33503973619304
C          -2.79959627031707   -9.90688510926854    1.06908379087697
C          -3.12722372420796  -11.26376306147050    0.95860626597528
C          -3.79656526809808  -11.78891678324508    2.11383412371828
N          -4.22024178061846  -13.05491368129225    2.13510309259000
C          -3.97270927999025  -13.78677127973679    1.07111766546288
C          -4.51124187776448  -15.17399857375272    1.07104750816464
O          -5.25561330268391  -15.58198322154040    1.93351097446991
C          -4.09511124987718  -16.00050273036410   -0.07699258301607
C          -3.38380867170732  -15.53347794578405   -1.10813008305600
C          -2.91908806075843  -14.13955039305182   -1.21678175566990
O          -2.30696944663642  -13.72793501603088   -2.17841415791393
C          -3.24867554036570  -13.27711502437815   -0.05250597950969
N          -2.84617401879634  -12.02544351936943   -0.09762092465922
C          -3.96057495421879  -10.82900826341324    3.12476886394075
S          -3.33319082869983   -9.29254695891815    2.60003675499285
C          -4.49979635099971  -11.04698605206824    4.40555198529533
C          -4.81013086229122  -12.28798559230803    4.95597031910095
C          -5.26355115100859  -12.16821509481262    6.26110095948476
C          -5.33213119144578  -10.82951542503160    6.70557499816226
S          -4.80103472787888   -9.72089151203242    5.51933783210241
C          -5.82208409156432  -10.81897844326865    8.02837777624667
C          -6.05271529220417  -12.15154529562053    8.43693771967410
C          -5.68582817337078  -13.04122985029356    7.34805018629520
C          -5.66166954435761  -14.40339796760041    7.36791180703938
C          -6.07908260235321  -15.14141770342380    8.49740464428879
N          -6.41139502604963  -15.73987910933393    9.41668603516229
C          -5.15560265203118  -15.17566251531608    6.29820631100232
N          -4.69957393462261  -15.81866207467227    5.46681928361517
C          -6.50172187289836  -12.24012875794671    9.74798089060838
C          -6.65978155890201  -10.99366334972884   10.33937570411103
S          -6.18636322901713   -9.69006411176572    9.24936974378221
C          -7.02707418296276  -10.77041707004150   11.68468528597806
C          -7.43757474459224   -9.62904908939055   12.30285640058360
C          -7.28247034305449   -9.50658868693612   13.77936107144190
O          -7.04461203267787  -10.39453783053419   14.56148156857623
C          -7.41887575686680   -8.05833639391254   14.05521818238588
C          -7.77573013147334   -7.38433336339439   12.87211960556610
C          -7.94332791579452   -8.36761308222101   11.80508397390499
C          -8.69960361764694   -8.19065094141676   10.67651575883428
C          -9.26333006906782   -6.95601752496742   10.29513914614830
N          -9.72798339917851   -5.96985821699040    9.93722140576067
C          -9.07681978842247   -9.25270339537306    9.82868974736120
N          -9.43183422216595  -10.10315204130185    9.14459395693224
C          -7.93591075398029   -6.00695437677238   12.88416733384947
C          -7.74137200111730   -5.32514734530576   14.07561547011239
C          -7.39998505620704   -6.00973366680634   15.23570486646837
C          -7.23135237319167   -7.38849444560090   15.24653438732778
Br         -7.15155516795896   -5.03263874661416   16.84452319787156
H           5.51201659484598   -7.73250910964543  -10.06546691519520
H           5.82667765559067   -9.98829784498975  -10.96562567562746
H           3.10052646708695  -11.60775190019417   -8.07220810468065
H           2.58117100928116   -5.77422257624312   -5.77028081008692
H           1.43127907141922   -5.16566541972383   -3.77790372923516
H          -2.02752401903768   -7.17224521252587    0.95036458748898
H          -4.42877902525420  -17.02876126702384   -0.04272286276052
H          -3.11591089755587  -16.16950848153240   -1.94104122921259
H          -4.69775688280590  -13.20072001274736    4.39852362515637
H          -6.73514352442692  -13.15454543951146   10.26299026095114
H          -6.87391284867789  -11.61826874222985   12.34687348213448
H          -8.19479539195752   -5.46067975623401   11.99158276820618
H          -7.85639544062382   -4.25254664634726   14.10505092722922
H          -6.96566704155309   -7.92264070900512   16.14551382037232
