117
 SCF done       -246.877101203980          0.000821115016
C           2.01377482547341  -15.57739308264214   16.58304904918860
C           2.39525726793325  -14.32957234448822   17.30157941325309
N           1.80545436333672  -13.90890862442272   18.39786810559970
S           2.50302149390608  -12.52642360359758   18.88620521948221
N           3.59822764067711  -12.43521549109151   17.69094625512309
C           3.44591956070048  -13.46628538241185   16.89144235250112
C           4.27090557679276  -13.68173306600070   15.66127646210232
C           4.19350263485927  -15.13168062141560   15.29691939488306
C           3.14165379968772  -15.99499749507173   15.70410292008738
N           3.28439428279112  -17.21129253913751   15.22766832160143
S           4.63238938063528  -17.27959965976842   14.32493864086217
N           5.07667151150524  -15.73174491202911   14.53195176995537
C           3.71908058956707  -12.85809222460066   14.53447483963815
C           4.35063391725809  -11.90414705896844   13.81625237194525
C           3.53494987405925  -11.31840531623229   12.80627973180303
C           3.86318466381726  -10.27369172290758   11.92121640977471
C           5.19052105865724   -9.69735660053042   11.84333998341036
C           5.52728938586753   -8.39613742301948   11.60323482079444
C           6.92162508266523   -8.20297100813685   11.50020288826674
C           7.66434420184212   -9.33766164927894   11.64663098265590
S           6.62192683772648  -10.68966888117783   11.93268297959520
C           9.13866296505284   -9.50328925232809   11.58812139024070
Cl          7.61160034986984   -6.65285238693488   11.20748017863334
C           2.84710434278357   -9.82867012733236   11.07956004648014
C           1.54939589158482  -10.39874250366689   11.06374261890418
C           1.21727860528930  -11.44698447805169   11.94998944211008
C           2.23420193790558  -11.87539061312399   12.79734509963678
S           2.07305898100385  -13.11045441011126   14.01780467367782
C          -0.10226266236307  -12.03719083397965   11.99636970551701
C          -0.43100005646030  -13.34549061791136   12.22038137681101
C          -1.82438760668332  -13.56233799477713   12.24173770795010
C          -2.57551511018269  -12.43780869334897   12.05167951286920
S          -1.54339859406931  -11.06927001463864   11.82959663332107
C          -4.05199120155043  -12.29685173155582   12.00362404769538
Cl         -2.50549832584176  -15.12446014135380   12.48987048544675
C           0.74069558879439   -9.83376402003620   10.05634143871902
C           1.35699720803133   -8.84303687076279    9.33674155815151
S           2.99697289749204   -8.56840601841158    9.88617606848802
C           0.82971963427014   -8.05952939125607    8.26407285877066
C          -0.44639649770111   -8.24362174813353    7.68303205489273
C          -0.91598202684377   -7.43571366911426    6.58329263986445
N          -2.14510903373851   -7.67494874477737    6.07602396696953
C          -2.88123027306561   -8.60981080743604    6.57575486079046
C          -2.42362008037101   -9.39799470523580    7.65900285684027
N          -1.25468532231516   -9.20920174658973    8.17275370719954
F          -3.18360637648826  -10.35681458717473    8.19326487400196
F          -4.08587090611825   -8.80377283458656    6.03350243810289
C          -0.14303887485108   -6.38820558312689    6.03089091876602
C           1.11159214726817   -6.18282497329315    6.63830238166923
C           1.59288581411925   -7.00986135973166    7.71392575703707
N           2.81232729883131   -6.64009429038683    8.10985583790003
S           3.29700269813135   -5.38780537955992    7.23303819350896
N           1.99902601016323   -5.24434391252912    6.30348945085846
C          -0.56650534132271   -5.55459768956938    4.95034540154171
C          -1.64738447842531   -5.71938310066653    4.12396771204645
C          -1.80535149482741   -4.69050573114754    3.17318508365161
C          -2.82400877994340   -4.55889432447872    2.20301552257656
C          -3.92019070986644   -5.49675271713955    2.10023794021004
C          -4.53825658779694   -5.94595327775060    0.96539958136402
C          -5.59090690963844   -6.84314305382111    1.23815189350405
C          -5.80404498610991   -7.07995303282616    2.56686848554217
S          -4.67743733737610   -6.17877174123217    3.51575290064410
C          -6.81401273657380   -7.95905798336667    3.20739304017898
Cl         -6.52039366213098   -7.57963264141657   -0.00985979680730
C          -2.72114242721891   -3.46327991092561    1.35004425624824
C          -1.69106326234429   -2.49930216049260    1.45184463913327
C          -0.70841389813566   -2.60304023634860    2.45453457253813
C          -0.77243792998156   -3.72336102149269    3.27393871093128
S           0.34470781382879   -4.11318858062848    4.55155466111197
C           0.28202153540943   -1.55925510099681    2.62944843567672
C           0.08339320218071   -0.20951780215595    2.56503080517936
C           1.26858961494225    0.52619630667571    2.78060723923915
C           2.37342269155776   -0.24069201145419    3.00975014467858
S           1.95067191290731   -1.92084777274491    2.96864220844514
C           3.76842445236457    0.19412515633481    3.27396944851647
Cl          1.29388628877309    2.24923739431666    2.74755329039640
C          -1.81041492485805   -1.49560398146538    0.45185625405604
C          -2.90215269180689   -1.64517430206528   -0.33369870388668
S          -3.83699327634747   -3.05179072922701    0.07234114039257
C          -3.30680669814810   -0.77620522316166   -1.49154094098261
C          -2.64189393035605   -1.29659676955528   -2.72907117287793
N          -3.07847412365937   -2.34081345994680   -3.39617584396026
S          -2.07796183426665   -2.63341184668976   -4.63925335179663
N          -1.05186471265385   -1.40965047168166   -4.34634121862586
C          -1.45366166434074   -0.75078207192335   -3.28197712135856
C          -0.74510072892671    0.44087728237893   -2.73724208434261
C          -1.64911524242036    1.16906713692014   -1.80321796817426
C          -2.83862856528937    0.62302540317774   -1.25253879329866
N          -3.46178758944530    1.46575340983634   -0.45933668404607
S          -2.62491720040371    2.85486707499573   -0.39597547082859
N          -1.43237272240830    2.40125934393100   -1.39866795219875
H           1.12317435445209  -15.38939995784392   15.97193612275684
H           1.75645312531364  -16.36958849151498   17.28851302846442
H           5.30805538465897  -13.37915492053903   15.83105478704011
H           5.36564116249845  -11.61086453629301   14.00740131930206
H           4.81923248763379   -7.59241435332148   11.53078823585486
H           9.41964609719112  -10.14595430830701   10.75396802458764
H           9.51086637464546   -9.96149350586463   12.50354130533086
H           9.61091359887648   -8.53263693598852   11.45925002599896
H           0.28453511865460  -14.13994967326021   12.32254101088409
H          -4.51905374810968  -13.26824826516383   12.14501541986865
H          -4.36209113286607  -11.88908970097650   11.04172656749352
H          -4.39930954898565  -11.61931181827436   12.78327384438672
H          -0.26199330770583  -10.14446666919828    9.84178311410088
H          -2.29208632711022   -6.57113506004567    4.20489166615522
H          -4.23524303471657   -5.68764452716677   -0.03205515026524
H          -7.20132267408766   -8.66791032801584    2.47838467679829
H          -7.64728791896791   -7.36966750286805    3.59351781285122
H          -6.36965398429622   -8.50079959578513    4.04071625388843
H          -0.87564799754256    0.25202108877535    2.41739802490996
H           4.45121247879661   -0.23997735701682    2.54482944840448
H           4.08749886422559   -0.12758771295629    4.26486468168885
H           3.83145254979059    1.27796132800217    3.21765973968170
H          -1.09453010497566   -0.70392926993146    0.32809830542552
H          -4.39478867895143   -0.81304052652543   -1.60125714225888
H          -0.41719422361829    1.09748194129199   -3.54601769122911
H           0.15888264855844    0.12190404495771   -2.20539739108533
