# ORCA input file
# SCF done       -210.375606826663          0.000225849777
! CAM-B3LYP def2-SVP def2/J RIJCOSX Grid4 TightSCF
%maxcore 5000
%tddft
    Mode sTDDFT
    Ethresh 5.0
    maxcore 5000
end

%pal
  nprocs 6
  end
* xyz 0 1
   C       -5.80122        -0.90171        -0.53905
   C       -5.69463        -2.02884         0.23531
   C       -5.58739        -3.33586        -0.28264
   N       -5.50404        -4.42465        -0.63924
   C       -5.67860        -2.06340         1.64449
   N       -5.64843        -2.18472         2.78696
   C       -5.76924        -0.88345        -1.99563
   C       -5.92284         0.45156        -2.43710
   C       -5.92516         0.79955        -3.76561
   C       -5.74564        -0.21806        -4.70681
   C       -5.61090        -1.55285        -4.25745
   C       -5.62500        -1.90676        -2.91517
   S       -5.40571        -2.65526        -5.58483
   C       -5.46004        -1.32095        -6.70401
   C       -5.65504        -0.11497        -6.12131
  Br       -5.21640        -1.64194        -8.53238
   C       -6.08542         1.34428        -1.27145
   O       -6.36472         2.52240        -1.32579
   C       -5.95840         0.46871        -0.07785
   C       -6.13257         0.85102         1.21692
   C       -6.19807         2.20803         1.68621
   C       -5.33955         3.17999         1.13663
   C       -5.38036         4.49828         1.52086
   C       -6.33581         4.93490         2.43778
   C       -7.17968         4.00466         2.99424
   C       -7.08331         2.63610         2.68649
   N       -8.00735         1.93312         3.43625
   C       -8.26777         0.51970         3.42388
   C       -8.77942         2.77522         4.20474
   O       -9.61994         2.41837         4.99069
   C       -8.38089         4.20518         3.86338
   C       -9.52495         4.82163         3.00807
   C       -9.65687         3.95681         1.74825
   O      -10.03096         2.80753         1.68540
   N       -9.22252         4.69457         0.68941
   C       -9.09270         4.16594        -0.64171
   C       -8.90136         5.98692         1.07057
   C       -8.43579         7.01468         0.28536
   C       -8.21804         8.26803         0.88024
   C       -8.50546         8.43579         2.24165
   C       -8.94344         7.38237         3.03020
   C       -9.13659         6.14958         2.44414
   C       -7.72071         9.37962         0.10785
   C       -7.07951         9.24939        -1.08118
   C       -6.64722        10.30536        -1.90509
   C       -6.01154        10.08495        -3.10314
   C       -5.61681        11.03270        -4.07737
   C       -5.05293        10.48551        -5.19346
   C       -4.94827         9.08004        -5.14720
   S       -5.60072         8.46564        -3.65245
   C       -4.41871         8.21115        -6.09137
   C       -3.95613         8.48628        -7.39098
   C       -3.52320         7.37678        -8.06124
   C       -3.59220         6.18065        -7.31217
   S       -4.26082         6.50938        -5.73087
   C       -3.20170         4.93683        -7.77271
   C       -3.10797         3.74116        -7.06370
   S       -2.68309         2.25090        -7.90571
   C       -2.62491         1.25149        -6.45052
   C       -2.93457         2.07727        -5.34434
   C       -3.21351         3.42240        -5.70959
   O       -3.48224         4.17153        -4.62378
   C       -3.37407         3.33017        -3.56358
   N       -3.56413         3.82640        -2.26708
   O       -3.39145         3.02299        -1.35893
   O       -3.86260         4.99385        -2.11797
   C       -3.04109         2.04940        -3.93856
   C       -2.33544        -0.09081        -6.63039
   C       -2.24282        -1.13095        -5.72025
   C       -2.05456        -2.48591        -6.06779
   C       -2.06145        -3.35203        -5.01019
   C       -2.23576        -2.72030        -3.76333
   S       -2.37590        -0.98887        -3.98357
   C       -2.30788        -3.27046        -2.49887
   C       -2.26077        -4.64038        -2.13523
   C       -2.35253        -4.86563        -0.80340
   C       -2.47247        -3.67994        -0.00822
   S       -2.48057        -2.26521        -1.07648
   C       -2.57008        -3.58448         1.32523
   H       -6.06169         1.82531        -4.07060
   H       -5.51886        -2.93923        -2.62783
   H       -5.72000         0.81020        -6.66438
   H       -6.22597         0.07465         1.96060
   H       -4.60108         2.86280         0.41867
   H       -4.68902         5.20146         1.08515
   H       -6.40754         5.97777         2.70527
   H       -7.42673        -0.04964         3.82441
   H       -8.49940         0.18861         2.41004
   H       -9.13982         0.35835         4.05823
   H       -8.21935         4.81308         4.75442
   H      -10.44554         4.82128         3.59542
   H       -9.57357         3.18841        -0.65186
   H       -8.04042         4.04648        -0.90836
   H       -9.58536         4.82224        -1.36001
   H       -8.25861         6.86304        -0.76568
   H       -8.35409         9.40637         2.69037
   H       -9.13085         7.52896         4.08340
   H       -7.86261        10.36690         0.52839
   H       -6.86888         8.25599        -1.45515
   H       -6.84925        11.32620        -1.61022
   H       -5.77151        12.08707        -3.92945
   H       -4.70115        11.05440        -6.03568
   H       -3.96399         9.47868        -7.80472
   H       -3.14220         7.38609        -9.06729
   H       -2.91618         4.88341        -8.81535
   H       -2.89363         1.24627        -3.25092
   H       -2.18139        -0.38310        -7.66291
   H       -1.94055        -2.78713        -7.09445
   H       -1.94903        -4.41697        -5.10058
   H       -2.16754        -5.41251        -2.87789
   H       -2.34531        -5.83553        -0.34060
   H       -2.56836        -4.46821         1.93781
   H       -2.65865        -2.63688         1.82496
*
