# ORCA input file
# SCF done       -187.674163057536          0.000376246337
! CAM-B3LYP def2-SVP def2/J RIJCOSX Grid4 TightSCF
%maxcore 5000
%tddft
    Mode sTDDFT
    Ethresh 5.0
    maxcore 5000
end

%pal
  nprocs 6
  end
* xyz 0 1
   C       -3.73520        -3.07949        -0.95214
   C       -4.14534        -3.64739        -2.13099
   C       -4.36905        -5.02914        -2.30855
   N       -4.57545        -6.13916        -2.51481
   C       -4.43099        -2.93805        -3.31570
   N       -4.68466        -2.42401        -4.31078
   C       -3.44984        -3.79605         0.28431
   C       -3.15397        -2.85835         1.30563
   C       -2.83625        -3.23292         2.58811
   C       -2.79243        -4.60090         2.87564
   C       -3.08776        -5.53186         1.84969
   C       -3.41984        -5.15250         0.55551
   S       -2.97528        -7.16847         2.42077
   C       -2.53758        -6.58971         4.00643
   C       -2.47876        -5.24004         4.10568
  Br       -2.20132        -7.82029         5.37952
   C       -3.25055        -1.49490         0.76059
   O       -3.28648        -0.45973         1.38365
   C       -3.48050        -1.67052        -0.70729
   C       -3.50297        -0.65459        -1.60913
   C       -2.95944         0.63361        -1.35009
   O       -3.39476         1.70512        -2.06889
   C       -1.92218         1.04885        -0.53754
   C       -0.86660         0.59076         0.37900
   O       -0.56774        -0.51110         0.75636
   N       -0.18555         1.76103         0.69963
   C       -0.63905         2.91421         0.06152
   O       -0.17093         4.01349         0.19474
   C       -1.75369         2.43304        -0.76219
   C       -2.68655         2.80646        -1.71250
   C       -2.92625         4.07797        -2.30143
   C       -3.82560         4.30776        -3.28250
   C       -3.99225         5.60256        -3.86640
   C       -4.79898         5.93642        -4.88828
   C       -5.69674         5.00911        -5.63702
   C       -4.77269         7.35199        -5.41286
   N       -3.88772         7.40989        -6.55392
   C       -4.08138         8.13250        -7.66564
   C       -3.20073         8.15889        -8.70765
   C       -3.36813         8.94371        -9.85550
   C       -2.48329         8.96262       -10.90703
   C       -2.53753         9.75823       -12.07252
   C       -1.50157         9.55691       -12.93772
   C       -0.58126         8.57782       -12.50759
   S       -1.05480         7.93306       -10.96152
   C        0.55132         8.11826       -13.16507
   C        1.10055         8.56896       -14.37832
   C        2.22267         7.88619       -14.76043
   C        2.60260         6.85987       -13.87292
   S        1.50120         6.79524       -12.52157
   C        3.65943         5.97610       -14.03055
   C        3.94021         4.96326       -13.12870
   C        4.90566         3.97516       -13.19891
   C        5.74139         3.50876       -14.26594
   C        5.51699         3.61628       -15.62207
   C        6.39119         3.11917       -16.60626
   N        7.07420         2.75851       -17.45752
   C        4.34323         4.12634       -16.20700
   N        3.39552         4.47693       -16.75486
   C        6.79640         2.68515       -13.66853
   C        6.50073         2.49887       -12.29593
   C        5.28003         3.26440       -11.96122
   O        4.72094         3.32243       -10.88448
   C        7.27795         1.72705       -11.46952
   C        8.41117         1.11734       -12.02063
   C        8.70751         1.32345       -13.38661
   C        7.91455         2.09861       -14.22628
   S       10.15739         0.48822       -13.85916
   C       10.33781        -0.12247       -12.23604
   C        9.36694         0.27856       -11.38286
  Br       11.79346        -1.23185       -11.82049
   H       -2.61529        -2.49291         3.34058
   H       -3.63552        -5.90002        -0.18952
   H       -2.22382        -4.71527         5.00818
   H       -3.91084        -0.79541        -2.60083
   H        0.60097         1.76943         1.33374
   H       -2.30711         4.87441        -1.91315
   H       -4.42531         3.48557        -3.64341
   H       -3.38212         6.38103        -3.42352
   H       -5.49592         3.96764        -5.41160
   H       -5.57976         5.16405        -6.70916
   H       -6.73711         5.22054        -5.38658
   H       -4.42151         8.03913        -4.63134
   H       -5.76979         7.66707        -5.72989
   H       -3.02146         6.89664        -6.47148
   H       -4.99614         8.70893        -7.70106
   H       -2.30665         7.55225        -8.64736
   H       -4.23561         9.58732        -9.92088
   H       -3.33738        10.45889       -12.23670
   H       -1.38353        10.07515       -13.87199
   H        0.66806         9.37983       -14.93657
   H        2.77597         8.07949       -15.66186
   H        4.27435         6.11502       -14.90679
   H        3.38272         4.96682       -12.19542
   H        7.02106         1.59456       -10.43021
   H        8.18475         2.22574       -15.26127
   H        9.32322        -0.00379       -10.34675
*
