# ORCA input file
# SCF done       -169.552547140499          0.000761795213
! CAM-B3LYP def2-SVP def2/J RIJCOSX Grid4 TightSCF
%maxcore 5000
%tddft
    Mode sTDDFT
    Ethresh 5.0
    maxcore 5000
end

%pal
  nprocs 6
  end
* xyz 0 1
   C      -10.90214        -1.31062         1.61852
   C      -11.36221        -1.46200         0.33816
   C      -11.39796        -2.69806        -0.33963
   N      -11.44853        -3.67943        -0.93283
   C      -11.90752        -0.41829        -0.43710
   N      -12.36727         0.39538        -1.10462
   C      -10.39028        -2.37449         2.47477
   C      -10.28844        -1.88289         3.79942
   C       -9.82686        -2.65483         4.83794
   C       -9.36555        -3.94021         4.53816
   C       -9.43800        -4.40986         3.20461
   C       -9.96807        -3.65415         2.16650
   S       -8.76326        -6.00353         3.05236
   C       -8.37997        -6.00730         4.75273
   C       -8.75308        -4.88275         5.40807
  Br       -7.50396        -7.48516         5.49783
   C      -10.63722        -0.44704         3.81306
   O      -10.79316         0.25659         4.78745
   C      -10.81976        -0.07893         2.38675
   C      -10.76907         1.17811         1.87467
   C      -10.31661         2.35597         2.54436
   C      -10.86608         3.61476         2.33708
   C      -12.01808         4.01869         1.49524
   N      -10.22297         4.48730         3.15296
   C       -9.24751         3.85401         3.86581
   C       -8.35369         4.59127         4.79402
   C       -9.25508         2.51682         3.50927
   C       -8.32976         1.53508         3.99227
   C       -8.00589         0.40322         3.32596
   C       -7.28922        -0.73371         3.79823
   C       -7.12320        -1.11630         5.11351
   O       -6.35988        -2.22377         5.46636
   C       -6.00937        -3.04253         4.43940
   C       -6.27650        -2.70256         3.08209
   C       -5.88504        -3.66480         2.20988
   S       -5.16697        -4.99797         3.03333
   C       -5.41424        -4.25400         4.57019
   O       -6.85682        -1.51926         2.74138
   C       -7.79142        -0.51602         6.20558
   C       -7.52398        -0.80818         7.51689
   C       -8.29126        -0.30701         8.57209
   C       -8.04186        -0.53890         9.90556
   C       -8.80047        -0.07192        11.00274
   C       -8.31264        -0.44170        12.22087
   C       -7.13532        -1.21767        12.15309
   S       -6.67551        -1.47877        10.48590
   C       -6.39018        -1.71581        13.20585
   C       -6.64699        -1.58144        14.58775
   C       -5.71033        -2.16687        15.38278
   C       -4.65510        -2.79634        14.67406
   S       -4.91292        -2.62495        12.94772
   C       -3.58213        -3.43454        15.23760
   C       -2.51017        -4.05338        14.57271
   S       -2.31811        -4.16458        12.83022
   C       -0.82653        -5.01511        12.92189
   C       -0.46520        -5.22017        14.23294
   C       -1.41626        -4.67804        15.14898
   O       -1.03460        -4.89068        16.42601
   C        0.14647        -5.56061        16.33638
   N        0.79042        -5.91930        17.54224
   O        1.84795        -6.51382        17.43606
   O        0.25587        -5.61534        18.58749
   C        0.54904        -5.79312        15.04786
   H       -9.77944        -2.26827         5.84368
   H      -10.00993        -4.05392         1.16685
   H       -8.58754        -4.71217         6.45613
   H      -11.06103         1.32368         0.84091
   H      -12.95834         3.86078         2.02533
   H      -12.05055         3.42510         0.58423
   H      -11.94782         5.07203         1.23087
   H      -10.44415         5.46769         3.23057
   H       -8.79486         5.54702         5.06958
   H       -7.38353         4.78050         4.33291
   H       -8.18520         4.00998         5.69785
   H       -7.87162         1.75207         4.94637
   H       -8.29172         0.31344         2.28619
   H       -5.96703        -3.66178         1.14333
   H       -5.10230        -4.74333         5.46903
   H       -8.61206         0.14464         5.97177
   H       -6.68224        -1.44403         7.75642
   H       -9.15143         0.30426         8.32936
   H       -9.68460         0.52352        10.85703
   H       -8.76299        -0.17315        13.15938
   H       -7.51085        -1.05888        14.95727
   H       -5.73550        -2.16685        16.45796
   H       -3.53260        -3.47042        16.31800
   H       -0.32015        -5.30468        12.02524
   H        1.44266        -6.30099        14.75024
*
