# ORCA input file
# SCF done       -190.530956375308          0.000900102262
! CAM-B3LYP def2-SVP def2/J RIJCOSX Grid4 TightSCF
%maxcore 5000
%tddft
    Mode sTDDFT
    Ethresh 5.0
    maxcore 5000
end

%pal
  nprocs 6
  end
* xyz 0 1
   C       -5.76436         8.93635         2.91528
   C       -6.83515         9.74998         2.64343
   C       -7.46252        10.57732         3.59746
   N       -8.01882        11.26969         4.32520
   C       -7.45705         9.88701         1.38562
   N       -8.01114        10.06823         0.39585
   C       -5.08333         8.83480         4.20160
   C       -4.02063         7.90538         4.08249
   C       -3.18452         7.59441         5.12660
   C       -3.39872         8.24247         6.34737
   C       -4.46260         9.16873         6.45869
   C       -5.31404         9.47576         5.40399
   S       -4.55183         9.85037         8.05392
   C       -3.17662         8.89632         8.54292
   C       -2.67510         8.10717         7.56369
  Br       -2.53454         9.03180        10.29892
   C       -4.00477         7.36129         2.71857
   O       -3.35101         6.40984         2.33057
   C       -5.06901         8.07780         1.98096
   C       -5.40513         7.84701         0.67430
   C       -4.57285         7.22309        -0.27541
   O       -5.14072         6.72806        -1.42091
   C       -3.19589         7.05723        -0.37130
   C       -1.89916         7.43169         0.22669
   O       -1.63127         8.11154         1.18138
   N       -0.96757         6.86753        -0.63649
   C       -1.50296         6.22786        -1.75762
   O       -0.85995         5.68084        -2.61598
   C       -2.94362         6.40380        -1.58915
   C       -4.17280         6.22195        -2.22643
   C       -4.39964         5.66161        -3.48977
   C       -5.60218         5.61589        -4.15099
   C       -5.83359         5.05585        -5.41336
   C       -4.96010         4.32063        -6.19493
   C       -5.25766         3.73180        -7.45039
   C       -4.25410         2.97058        -7.97980
   C       -3.10419         2.91492        -7.16854
   S       -3.32935         3.90240        -5.74059
   C       -1.93458         2.18368        -7.25819
   C       -1.53174         1.19448        -8.19027
   C       -0.39700         0.53727        -7.83205
   C        0.16370         0.97300        -6.59483
   S       -0.76787         2.33276        -5.97183
   C        1.23606         0.49227        -5.91387
   C        1.65033         1.08902        -4.66128
   C        2.90513         1.61085        -4.52477
   S        3.09173         2.64452        -3.16733
   C        1.44386         2.34251        -2.69855
   C        0.79697         1.43551        -3.54628
   C       -0.47893         0.93715        -3.18246
   C       -0.97274        -0.33844        -3.83167
   C       -2.22135        -0.25146        -4.72541
   C       -1.16261         1.50902        -2.11691
   C       -2.58285         1.10870        -1.82443
   C       -3.54894         2.20904        -2.26803
   C       -0.54171         2.50124        -1.31480
   C       -1.01173         3.21883        -0.15312
   C       -0.07079         4.06585         0.34077
   S        1.42713         4.04686        -0.50494
   C        0.78271         2.87600        -1.60541
   C       -2.30910         3.16611         0.52732
   C       -2.75991         2.10941         1.22056
   C       -4.02072         2.05364         1.88384
   S       -4.62626         0.54330         2.51645
   C       -6.13965         1.21130         3.05778
   C       -6.16482         2.56916         2.76779
   C       -4.97737         3.02555         2.11398
   N       -5.14472         4.35419         1.89000
   N       -6.31423         4.78017         2.40477
   C       -6.94602         3.74976         2.90244
   C       -7.09907         0.35533         3.68056
   C       -8.30023         0.73803         4.11755
   H       -2.38440         6.88229         5.00216
   H       -6.11244        10.18526         5.54251
   H       -1.82973         7.45619         7.69130
   H       -6.37082         8.15745         0.29996
   H        0.02816         6.94832        -0.48560
   H       -3.49325         5.29524        -3.94254
   H       -6.45452         6.06791        -3.66063
   H       -6.82594         5.18311        -5.82645
   H       -6.21586         3.87403        -7.91881
   H       -4.32165         2.44300        -8.91459
   H       -2.10500         0.98342        -9.07570
   H        0.04813        -0.26470        -8.39472
   H        1.87004        -0.25526        -6.37129
   H        3.71534         1.51576        -5.22197
   H       -1.16905        -1.04076        -3.01658
   H       -0.15120        -0.76295        -4.41140
   H       -2.93005        -1.03706        -4.47326
   H       -1.95879        -0.37746        -5.77262
   H       -2.72249         0.70470        -4.61758
   H       -2.71473         0.93488        -0.75937
   H       -2.83669         0.18696        -2.33945
   H       -3.35408         3.13157        -1.72842
   H       -4.57604         1.90736        -2.07543
   H       -3.43800         2.41619        -3.32958
   H       -0.18119         4.70100         1.19940
   H       -2.87281         4.08914         0.52451
   H       -2.16029         1.20960         1.28388
   H       -4.43021         5.03859         1.67479
   H       -7.91593         3.87726         3.33838
   H       -6.78918        -0.67664         3.78626
   H       -8.64080         1.75356         4.02530
   H       -8.97436         0.03863         4.57855
*
