# ORCA input file
# SCF done       -186.702477953847          0.000916180005
! CAM-B3LYP def2-SVP def2/J RIJCOSX Grid4 TightSCF
%maxcore 5000
%tddft
    Mode sTDDFT
    Ethresh 5.0
    maxcore 5000
end

%pal
  nprocs 6
  end
* xyz 0 1
   C       -4.86273         1.10251         4.34827
   C       -5.73460         0.55433         5.25588
   C       -5.36696         0.12668         6.54896
   N       -5.14024        -0.24094         7.61307
   C       -7.11522         0.34667         5.06383
   N       -8.24698         0.15355         5.00142
   C       -3.44047         1.31608         4.58472
   C       -2.87463         1.91983         3.43667
   C       -1.54555         2.25557         3.35056
   C       -0.72936         1.97285         4.45038
   C       -1.30154         1.36556         5.59366
   C       -2.64695         1.03259         5.68195
   S       -0.11629         1.10188         6.83739
   C        1.11439         1.79845         5.81679
   C        0.66343         2.21056         4.60851
  Br        2.87733         1.92055         6.44584
   C       -3.91647         2.09462         2.40535
   O       -3.75855         2.61690         1.32205
   C       -5.16478         1.55816         2.99996
   C       -6.42000         1.60178         2.46577
   C       -6.82623         1.89945         1.12977
   C       -6.02089         1.60255         0.05572
   S       -6.75154         1.80515        -1.46400
   C       -8.21270         2.35525        -0.69408
   C       -8.13739         2.36848         0.70593
   C       -9.26712         2.81661         1.43753
   C       -9.17673         2.97637         2.93510
   C       -8.15189         4.04420         3.32462
   C      -10.44237         3.15295         0.76727
   C      -11.70219         3.49244         1.52208
   C      -11.78206         4.98031         1.87410
   C      -10.49768         3.15286        -0.64689
   C      -11.57822         3.45935        -1.56275
   C      -11.21019         3.22680        -2.86339
   S       -9.59947         2.69789        -3.07955
   C       -9.36312         2.73567        -1.36068
   C      -12.89168         3.98254        -1.27918
   C      -13.96752         3.67465        -2.04885
   C      -15.27129         4.17633        -1.87873
   C      -16.29392         3.82224        -2.72742
   C      -17.65697         4.19847        -2.70133
   C      -18.40627         3.65981        -3.71060
   C      -17.66897         2.83991        -4.58560
   S      -15.99900         2.75945        -4.09421
   C      -18.05794         2.13086        -5.71598
   C      -19.31331         1.97068        -6.32508
   C      -19.28146         1.16276        -7.43031
   C      -18.00115         0.65730        -7.74574
   S      -16.83387         1.24521        -6.58764
   C      -17.69815        -0.19187        -8.79453
   C      -16.44973        -0.69354        -9.15616
   S      -16.33404        -1.83406       -10.50276
   C      -14.58458        -2.02489       -10.41432
   C      -14.12764        -1.23119        -9.33678
   C      -15.15498        -0.51495        -8.66989
   O      -14.65205         0.17945        -7.63225
   C      -13.32488        -0.11240        -7.59663
   N      -12.53728         0.47752        -6.59699
   O      -11.35139         0.18023        -6.58912
   O      -13.06758         1.24234        -5.81024
   C      -12.95091        -0.97641        -8.60128
   C      -13.86068        -2.81724       -11.29660
   C      -12.50294        -2.67367       -11.66273
   C      -11.56677        -1.65603       -11.42710
   C      -10.31410        -1.75493       -11.97213
   C       -9.94084        -2.85775       -12.77362
   C      -10.83744        -3.83647       -13.08176
   C      -12.14925        -3.75535       -12.55744
   C      -13.25756        -4.54415       -12.77085
   C      -14.36351        -4.00361       -12.02586
   C      -15.58358        -4.56310       -11.95878
   H       -1.14827         2.71759         2.46045
   H       -3.03198         0.57328         6.57661
   H        1.28541         2.66316         3.85806
   H       -7.22560         1.33269         3.12947
   H       -5.02738         1.20438         0.09690
   H       -8.94478         2.02307         3.41186
   H      -10.13301         3.28787         3.34388
   H       -7.15752         3.81102         2.95289
   H       -8.10167         4.13135         4.40791
   H       -8.44466         5.00812         2.91301
   H      -11.77334         2.89582         2.43210
   H      -12.55568         3.21029         0.90547
   H      -11.01856         5.24866         2.59972
   H      -12.75540         5.21754         2.29894
   H      -11.62549         5.59496         0.98997
   H      -11.81350         3.38434        -3.73611
   H      -13.01350         4.68099        -0.46644
   H      -13.83738         2.96310        -2.85444
   H      -15.48218         4.85557        -1.06375
   H      -18.04627         4.85115        -1.93950
   H      -19.45912         3.83501        -3.84516
   H      -20.20253         2.43961        -5.94275
   H      -20.14340         0.91792        -8.02608
   H      -18.52817        -0.51080        -9.41158
   H      -11.96620        -1.37196        -8.73930
   H      -11.83996        -0.78319       -10.85618
   H       -9.59045        -0.97259       -11.79746
   H       -8.93417        -2.89757       -13.16325
   H      -10.57454        -4.66088       -13.72769
   H      -13.31486        -5.42649       -13.37936
   H      -16.38204        -4.16180       -11.36126
   H      -15.79944        -5.45817       -12.51806
*
