# ORCA input file
# SCF done       -118.984138309784          0.000535515629
! CAM-B3LYP def2-SVP def2/J RIJCOSX Grid4 TightSCF
%maxcore 5000
%tddft
    Mode sTDDFT
    Ethresh 5.0
    maxcore 5000
end

%pal
  nprocs 6
  end
* xyz 0 1
   C        2.36509       -11.73617        -5.89077
   C        2.90346       -10.61124        -5.40191
   C        2.49794        -9.25833        -5.65700
   C        3.24322        -8.32102        -5.03138
   C        4.29262        -8.84210        -4.22425
   S        4.29534       -10.59735        -4.30185
   C        5.19721        -8.14554        -3.46390
   C        5.28786        -6.74333        -3.26998
   C        6.26411        -6.37043        -2.40471
   C        7.01576        -7.44453        -1.84777
   S        6.43177        -8.96507        -2.51848
   C        8.07693        -7.28219        -0.99988
   C        8.90955        -8.25481        -0.38062
   C        8.54136        -9.51626         0.01385
   O        9.44894       -10.46060         0.45186
   C       10.72800       -10.01503         0.58902
   C       11.09386        -8.66764         0.29754
   C       12.40596        -8.41899         0.52951
   S       13.21893        -9.82724         1.10689
   C       11.77029       -10.75939         1.03430
   O       10.19788        -7.76380        -0.18387
   C        7.17752        -9.94692         0.06629
   C        6.78994       -11.23928         0.04497
   C        5.41021       -11.61284         0.01707
   C        4.90739       -12.83354        -0.23051
   C        5.70201       -14.06811        -0.49929
   C        3.41695       -13.00903        -0.36194
   N        3.06199       -12.82684        -1.75430
   C        1.87748       -13.21633        -2.29795
   C        0.93146       -13.98048        -1.71378
   C       -0.25783       -14.45683        -2.35505
   C       -0.68141       -14.18109        -3.60379
   C       -1.87381       -14.71889        -4.20681
   C       -2.30403       -14.34721        -5.45792
   S       -3.73576       -15.15181        -5.94508
   C       -3.79291       -16.03823        -4.44154
   C       -2.74144       -15.68901        -3.63899
   C       -4.85103       -16.97853        -4.22899
   C       -5.00418       -17.72721        -3.12284
   C       -6.05792       -18.68418        -2.90601
   C       -6.16938       -19.41190        -1.74946
   S       -7.50992       -20.47936        -1.75699
   C       -7.94698       -19.95659        -3.33970
   C       -7.10398       -19.01568        -3.81955
   H        1.52259       -11.69379        -6.55834
   H        2.75703       -12.70719        -5.64774
   H        1.66439        -9.05055        -6.30416
   H        3.08120        -7.26106        -5.11686
   H        4.62761        -6.05757        -3.76989
   H        6.47514        -5.35139        -2.13146
   H        8.42432        -6.26532        -0.86269
   H       12.93717        -7.50028         0.39629
   H       11.76943       -11.78965         1.32197
   H        6.43930        -9.16074         0.12119
   H        7.54531       -12.00708        -0.01805
   H        4.71227       -10.79651         0.16323
   H        6.76134       -13.86440        -0.60682
   H        5.33922       -14.53868        -1.41231
   H        5.56560       -14.78102         0.31476
   H        2.88222       -12.29154         0.27903
   H        3.12912       -14.02058        -0.06431
   H        3.56918       -12.09651        -2.23129
   H        1.75452       -12.89292        -3.32148
   H        1.06010       -14.29065        -0.68687
   H       -0.86562       -15.10944        -1.74210
   H       -0.11476       -13.51039        -4.23539
   H       -1.85113       -13.63644        -6.12089
   H       -2.58627       -16.12221        -2.66854
   H       -5.55606       -17.06762        -5.04364
   H       -4.29698       -17.63115        -2.31046
   H       -5.53081       -19.37564        -0.88887
   H       -8.80778       -20.38550        -3.81324
   H       -7.21373       -18.56945        -4.79075
*
