# ORCA input file
# SCF done       -163.655364270274          0.000771578608
! CAM-B3LYP def2-SVP def2/J RIJCOSX Grid4 TightSCF
%maxcore 5000
%tddft
    Mode sTDDFT
    Ethresh 5.0
    maxcore 5000
end

%pal
  nprocs 6
  end
* xyz 0 1
   C       -1.75720        -4.22857        -1.41274
   C       -0.47369        -4.05528        -1.75246
   C        0.06760        -3.10782        -2.68648
   C        1.40762        -3.16996        -2.83435
   C        2.04338        -4.16248        -2.03353
   S        0.84736        -5.01987        -1.07360
   C        3.37796        -4.46236        -1.97266
   C        4.43952        -3.89059        -2.72802
   C        5.65465        -4.42552        -2.46900
   C        5.65025        -5.45423        -1.47722
   S        4.00153        -5.69816        -0.89193
   C        6.72770        -6.13432        -1.01276
   C        6.68886        -7.07805         0.08379
   C        7.54855        -6.91122         1.13130
   S        7.14981        -7.82455         2.53187
   C        5.78458        -8.50587         1.69851
   C        5.69503        -8.08942         0.36223
   C        4.74069        -8.69813        -0.48730
   C        4.90226        -8.57565        -1.98114
   C        5.53595        -9.85860        -2.53000
   C        3.76246        -9.52391         0.05124
   C        2.58427        -9.95564        -0.78040
   C        1.45269        -8.93968        -0.59844
   C        3.79929        -9.86396         1.42392
   C        2.90806       -10.68074         2.21166
   C        3.27988       -10.73055         3.51935
   S        4.73338        -9.88441         3.88185
   C        4.84101        -9.36979         2.22697
   C        1.76165       -11.46328         1.77071
   C        0.53568       -11.33763         2.29373
   C       -0.56869       -12.18134         1.91047
   N       -1.78150       -11.88730         2.42892
   C       -2.75536       -12.69590         2.12417
   C       -2.53590       -13.84250         1.31987
   N       -1.31220       -14.01348         0.78457
   N       -0.35772       -13.19178         1.06881
   C       -3.55415       -14.79847         1.05233
   S       -5.15449       -14.59943         1.67196
   C       -5.72292       -16.10027         1.00510
   C       -4.68918       -16.73617         0.28511
   C       -3.46477       -15.99739         0.32512
   C       -2.32376       -16.48694        -0.32224
   C       -2.36274       -17.68093        -1.01175
   C       -1.16866       -18.23196        -1.69341
   O       -1.19562       -19.27431        -2.31778
   O       -0.02397       -17.55516        -1.61063
   C       -3.59546       -18.40855        -1.08378
   O       -3.70751       -19.55990        -1.75622
   C       -4.72332       -17.92735        -0.44897
   C       -7.06064       -16.44282         1.28516
   C       -7.69887       -17.62423         1.05552
   C       -9.04659       -17.86232         1.38137
   S      -10.10194       -16.66928         2.11422
   C      -11.48656       -17.72381         2.16842
   C      -11.14562       -18.96200         1.63277
   C       -9.78797       -19.02476         1.20110
   N       -9.60074       -20.27321         0.70896
   N      -10.72790       -21.00124         0.79430
   C      -11.65482       -20.25577         1.33422
   C      -12.71097       -17.23536         2.71519
   C      -13.83995       -17.94057         2.82140
   H       -2.52802        -3.61927        -1.85068
   H       -2.05768        -4.97467        -0.70031
   H       -0.57857        -2.42212        -3.20568
   H        1.97614        -2.53406        -3.48992
   H        4.26284        -3.10675        -3.44293
   H        6.57072        -4.12532        -2.94720
   H        7.70533        -5.83505        -1.36785
   H        8.36669        -6.21869         1.18206
   H        5.57152        -7.75451        -2.22217
   H        3.94905        -8.38228        -2.47209
   H        4.92603       -10.73152        -2.31191
   H        6.51438       -10.01027        -2.07882
   H        5.66179        -9.78235        -3.60786
   H        2.23203       -10.93706        -0.47552
   H        2.84316       -10.01531        -1.83436
   H        1.14129        -8.89923         0.44247
   H        0.59366        -9.21797        -1.20446
   H        1.78095        -7.94501        -0.89210
   H        2.79119       -11.28164         4.29930
   H        1.93067       -12.23740         1.03344
   H        0.30347       -10.57623         3.02406
   H       -3.74130       -12.45787         2.50591
   H       -1.43911       -15.87071        -0.24672
   H       -0.09473       -16.73887        -1.09495
   H       -2.83168       -19.78003        -2.15196
   H       -5.62696       -18.49918        -0.56147
   H       -7.63411       -15.66472         1.77685
   H       -7.17570       -18.46252         0.62285
   H       -8.77113       -20.68351         0.31513
   H      -12.63666       -20.65324         1.48952
   H      -12.67994       -16.21005         3.06083
   H      -13.90699       -18.96107         2.49015
   H      -14.72764       -17.50813         3.24695
*
