# ORCA input file
# SCF done       -189.513576340281          0.000722945629
! CAM-B3LYP def2-SVP def2/J RIJCOSX Grid4 TightSCF
%maxcore 5000
%tddft
    Mode sTDDFT
    Ethresh 5.0
    maxcore 5000
end

%pal
  nprocs 6
  end
* xyz 0 1
   C       -1.58194         0.69665         8.32187
   C       -0.87574        -0.47552         8.54856
   C        0.56442        -0.53996         8.40289
   N        1.22982        -1.60548         8.85307
   C        0.55346        -2.65009         9.26985
   C       -0.88316        -2.67045         9.19513
   N       -1.55483        -1.59370         8.89276
   C       -1.56951        -3.87863         9.47368
   N       -2.06592        -4.88884         9.68926
   C        1.24693        -3.76056         9.79731
   N        1.77297        -4.69519        10.20589
   C        1.29185         0.54693         7.85753
   C        0.56697         1.74461         7.68265
   C       -0.85833         1.81720         7.92487
   N       -1.33463         3.04416         7.68271
   S       -0.12783         3.98784         7.20803
   N        1.06279         2.91062         7.27066
   C        2.65080         0.43634         7.47361
   S        3.65016         1.84474         7.29140
   C        5.00013         0.92609         6.78269
   C        4.71005        -0.41464         6.70250
   C        3.36599        -0.70961         7.10514
   N        2.90157        -1.96790         7.05910
   C        3.71704        -2.92767         6.69683
   C        5.08047        -2.62133         6.25005
   N        5.84211        -3.56099         5.64673
   C        7.20014        -3.29835         5.24161
   N        5.53636        -1.39404         6.26955
   N        3.18569        -4.19437         6.62163
   C        1.75468        -4.33188         6.43847
   C        3.86505        -5.34503         6.96528
   C        4.97704        -5.41047         7.71968
   C        5.73040        -6.63501         7.90398
   C        5.70518        -7.59009         6.92673
   S        6.69681        -8.95885         7.21827
   C        7.20814        -8.25151         8.71690
   C        6.61877        -7.00774         8.98780
   C        6.96097        -6.35911        10.20402
   C        6.18092        -5.13765        10.61635
   C        4.73195        -5.51916        10.92506
   C        7.93386        -6.89924        11.03935
   C        8.43840        -6.12997        12.23520
   C        7.72732        -6.53305        13.52720
   C        8.48809        -8.17919        10.77770
   C        9.36905        -9.03432        11.55227
   C        9.59153       -10.22662        10.91986
   S        8.80023       -10.41081         9.41145
   C        8.09191        -8.83878         9.60534
   C        9.95874        -8.80759        12.85190
   C       10.17527        -9.80010        13.74507
   C       10.78031        -9.63745        15.01295
   S       11.00663       -11.03505        16.04688
   C       11.76962       -10.13211        17.33979
   C       11.83185        -8.78554        16.96211
   C       11.28057        -8.52243        15.67733
   N       11.41558        -7.18534        15.48272
   N       12.00471        -6.59420        16.53683
   C       12.26280        -7.52027        17.42610
   C       12.23216       -10.72089        18.51941
   C       12.06460       -12.04746        18.83137
   C       12.50729       -12.73525        19.96691
   C       13.44632       -12.36103        20.90627
   C       14.37353       -11.29379        20.93641
   C       15.18551       -11.28200        22.03046
   C       14.95145       -12.34030        22.93854
   S       13.67105       -13.36787        22.33349
   C       15.60058       -12.59239        24.12746
   C       16.64411       -11.82964        24.71793
   C       17.09420       -12.31757        25.89642
   C       16.43424       -13.51349        26.33250
   S       15.20737       -13.96725        25.13852
   C       16.66179       -14.21719        27.45078
   H       -2.65117         0.72541         8.44092
   H        5.93822         1.40299         6.58329
   H        5.57185        -4.52798         5.73583
   H        7.30777        -2.22680         5.09639
   H        7.40575        -3.82307         4.30964
   H        7.91442        -3.62923         6.00059
   H        1.34738        -3.37569         6.12007
   H        1.26537        -4.63731         7.36582
   H        1.56052        -5.08717         5.67455
   H        3.38767        -6.24670         6.60543
   H        5.35989        -4.50261         8.15612
   H        5.16405        -7.54960         6.00152
   H        6.21800        -4.37513         9.83910
   H        6.59677        -4.68577        11.51232
   H        4.16838        -4.64358        11.23546
   H        4.70346        -6.25138        11.72875
   H        4.23500        -5.94631        10.06005
   H        8.32235        -5.05825        12.07603
   H        9.51130        -6.29711        12.31985
   H        6.66625        -6.30831        13.45692
   H        8.13796        -5.99000        14.37646
   H        7.83778        -7.59949        13.70998
   H       10.22655       -11.02010        11.26178
   H       10.26001        -7.80952        13.11715
   H        9.85407       -10.80654        13.51496
   H       11.13617        -6.62192        14.69860
   H       12.73524        -7.26550        18.35298
   H       12.70219       -10.04605        19.21925
   H       11.47366       -12.63133        18.13437
   H       12.05834       -13.70744        20.12835
   H       14.45856       -10.58617        20.13271
   H       15.95134       -10.54658        22.20137
   H       17.02587       -10.94238        24.24468
   H       17.87802       -11.87686        26.48638
   H       17.41522       -13.90434        28.15188
   H       16.10436       -15.10565        27.68328
*
