# ORCA input file
# SCF done       -212.465198230041          0.000476486242
! CAM-B3LYP def2-SVP def2/J RIJCOSX Grid4 TightSCF
%maxcore 5000
%tddft
    Mode sTDDFT
    Ethresh 5.0
    maxcore 5000
end

%pal
  nprocs 6
  end
* xyz 0 1
   C       -3.92043        -1.09594        -2.86045
   C       -4.41595        -2.18750        -2.16123
   C       -3.53799        -3.22007        -1.66911
   N       -4.04028        -4.26304        -1.00895
   C       -5.33400        -4.34739        -0.80205
   C       -6.20666        -3.31231        -1.28381
   N       -5.74560        -2.28186        -1.93764
   C       -7.60399        -3.41721        -1.04957
   N       -8.72355        -3.53525        -0.84283
   C       -5.85233        -5.46928        -0.11371
   N       -6.29713        -6.37072         0.43600
   C       -2.12944        -3.18788        -1.86489
   C       -1.64592        -2.07075        -2.58767
   C       -2.54702        -1.04197        -3.07133
   N       -1.88867        -0.07504        -3.72195
   S       -0.33003        -0.40888        -3.73102
   N       -0.38063        -1.79685        -2.91375
   C       -1.33075        -4.23171        -1.34878
   S       -2.02983        -5.53684        -0.41952
   C       -0.49815        -6.34362        -0.17668
   C        0.52520        -5.63271        -0.81029
   C        0.04829        -4.45168        -1.44942
   N        1.12253        -3.86115        -2.00599
   N        2.23704        -4.56329        -1.77830
   C        1.91908        -5.62108        -1.07276
   C       -0.46949        -7.52731         0.58511
   C        0.64779        -8.27563         0.77539
   C        0.71691        -9.50047         1.50885
   C       -0.03582        -9.84563         2.65786
   C       -0.81688        -8.87428         3.45621
   O       -0.89370        -7.68996         3.32313
   S       -1.62005        -9.73214         4.81270
   C       -0.81714       -11.28400         4.43130
   O       -0.94943       -12.25984         5.10842
   C        0.01319       -11.11966         3.21692
   C        0.83284       -12.16266         2.72532
   C        1.64955       -11.78572         1.64455
   C        1.59459       -10.51603         1.08237
   C        2.54493       -10.48777        -0.05174
   O        2.84517        -9.59505        -0.78438
   O        3.09176       -11.74103        -0.15146
   C        2.58941       -12.58366         0.81262
   O        2.89654       -13.73270         0.86279
   C        0.77396       -13.48165         3.29205
   C        1.82809       -14.30708         3.46582
   C        1.76635       -15.62982         4.00639
   C        0.58344       -16.35877         4.29124
   C        0.63205       -17.66082         4.90730
   N       -0.50719       -18.30381         5.22144
   C       -1.65520       -17.74566         4.94226
   C       -1.70721       -16.47381         4.27903
   N       -0.60979       -15.83197         3.97313
   C       -2.95436       -15.90014         3.92117
   N       -3.97073       -15.45478         3.63945
   C       -2.85840       -18.41614         5.28339
   N       -3.85077       -18.92003         5.55106
   C        1.84927       -18.29202         5.24848
   C        3.02206       -17.62210         4.86351
   C        2.97495       -16.30377         4.27517
   N        4.20238       -15.84141         4.01520
   S        5.27360       -16.95379         4.41994
   N        4.27391       -18.07882         4.95497
   C        1.84419       -19.56900         5.89430
   C        2.73604       -19.97608         6.83243
   C        2.86565       -21.31906         7.37613
   C        2.29459       -22.45326         6.86504
   C        2.47489       -23.74306         7.40970
   N        2.58394       -24.81185         7.81270
   C        1.48345       -22.50028         5.70994
   N        0.84115       -22.62430         4.76695
   C        3.79028       -21.25664         8.49905
   C        4.25470       -19.92462         8.63711
   C        3.61301       -19.06648         7.62518
   O        3.70267       -17.86180         7.54159
   C        5.15255       -19.55119         9.60839
   C        5.62028       -20.53883        10.48076
   C        5.14683       -21.86646        10.33850
   C        4.23541       -22.24317         9.36057
   S        5.84681       -22.92494        11.52396
   C        6.75628       -21.59150        12.18393
   C        6.54666       -20.41207        11.55107
  Br        7.89608       -21.88154        13.64341
   H       -4.57853        -0.32519        -3.22117
   H        1.11663        -2.99054        -2.52381
   H        2.67558        -6.32437        -0.79130
   H       -1.41909        -7.83704         0.99760
   H        1.54803        -8.00374         0.24515
   H       -0.19776       -13.79964         3.64205
   H        2.83245       -13.97980         3.23701
   H        1.02480       -20.21776         5.61139
   H        5.48561       -18.52846         9.69054
   H        3.89934       -23.26460         9.29715
   H        7.02459       -19.49013        11.82765
*
