# ORCA input file
# SCF done       -169.567419096197          0.000680527019
! CAM-B3LYP def2-SVP def2/J RIJCOSX Grid4 TightSCF
%maxcore 5000
%tddft
    Mode sTDDFT
    Ethresh 5.0
    maxcore 5000
end

%pal
  nprocs 6
  end
* xyz 0 1
   C       -3.85977        -0.82195        -1.49259
   C       -2.79590        -1.02459        -2.36007
   C       -1.97336        -2.21911        -2.32003
   N       -0.96669        -2.34821        -3.19039
   C       -0.73472        -1.39225        -4.06725
   C       -1.54709        -0.21214        -4.10072
   N       -2.53756        -0.05582        -3.26742
   C       -1.27002         0.79929        -5.05811
   N       -1.01255         1.59011        -5.84475
   C        0.33224        -1.55415        -4.98142
   N        1.19526        -1.67534        -5.72652
   C       -2.22426        -3.25277        -1.37196
   C       -3.32233        -3.01793        -0.50717
   C       -4.12643        -1.82024        -0.56397
   N       -5.09686        -1.83432         0.35812
   S       -5.00631        -3.19383         1.19550
   N       -3.74160        -3.84637         0.44678
   C       -1.47958        -4.44701        -1.23228
   S       -1.93333        -5.60607         0.00240
   C       -0.63558        -6.70660        -0.36668
   C        0.11993        -6.20883        -1.43176
   C       -0.35820        -4.95071        -1.90666
   N        0.45074        -4.60877        -2.92844
   N        1.38523        -5.53785        -3.14830
   C        1.21924        -6.50347        -2.27935
   C       -0.48793        -7.87540         0.41049
   C        0.58283        -8.70140         0.30191
   C        0.82502        -9.92562         1.00228
   C        0.34559       -10.31157         2.28026
   C       -0.29343        -9.40046         3.24443
   O       -0.44117        -8.21503         3.18354
   S       -0.79739       -10.32903         4.70125
   C       -0.03902       -11.83807         4.11589
   O       -0.04385       -12.84973         4.75560
   C        0.55862       -11.59764         2.78873
   C        1.33465       -12.57847         2.13960
   C        1.89400       -12.15693         0.92274
   C        1.62944       -10.89949         0.38044
   C        2.29024       -10.84557        -0.93878
   O        2.34099        -9.96636        -1.74871
   O        2.89816       -12.05801        -1.14024
   C        2.71453       -12.89003        -0.05722
   O        3.17457       -13.99353        -0.03193
   C        1.50313       -13.90016         2.69297
   C        2.65931       -14.57379         2.75708
   C        2.78279       -15.86889         3.40566
   C        3.91235       -16.13067         4.18441
   F        4.90515       -15.21791         4.20880
   C        4.04413       -17.26376         4.96089
   C        3.00493       -18.18108         4.97945
   C        1.88292       -17.97329         4.20118
   C        1.76987       -16.84949         3.38287
   C        0.62847       -16.73998         2.48755
   C        0.74218       -16.50968         1.15670
   C        1.92950       -16.45368         0.36404
   C        1.71042       -16.24934        -0.95496
   C        0.33948       -16.11029        -1.30602
   S       -0.66807       -16.28655         0.11934
   C       -0.18240       -15.88541        -2.55503
   C        0.54353       -15.71966        -3.77188
   C       -0.23210       -15.52810        -4.85935
   C       -1.64302       -15.52348        -4.58992
   S       -1.90399       -15.77231        -2.85485
   C       -2.64413       -15.36498        -5.46513
   H       -4.44563         0.07853        -1.54979
   H        0.38739        -3.76710        -3.48490
   H        1.86043        -7.36120        -2.29957
   H       -1.28519        -8.07162         1.11072
   H        1.31780        -8.47001        -0.45385
   H        0.61981       -14.32836         3.14830
   H        3.58247       -14.11202         2.43578
   H        4.93645       -17.40526         5.54914
   H        3.07963       -19.06266         5.59683
   H        1.08820       -18.70402         4.19432
   H       -0.35006       -16.92431         2.90883
   H        2.90023       -16.59563         0.80007
   H        2.49197       -16.19146        -1.68948
   H        1.61819       -15.74875        -3.78888
   H        0.13417       -15.38801        -5.86078
   H       -2.44037       -15.21819        -6.51122
   H       -3.67351       -15.38108        -5.15683
*
