# ORCA input file
# SCF done       -245.628579678782          0.000435545143
! CAM-B3LYP def2-SVP def2/J RIJCOSX Grid4 TightSCF
%maxcore 5000
%tddft
    Mode sTDDFT
    Ethresh 5.0
    maxcore 5000
end

%pal
  nprocs 6
  end
* xyz 0 1
   N       -3.11283        -2.47166         6.52302
   C       -3.08608        -1.26082         5.70670
   N       -1.99469        -0.43115         6.23245
   C       -1.42360        -1.15915         7.34390
   N       -0.89447        -0.31358         8.41082
   C       -1.24653        -0.90000         9.68090
   C       -1.17300        -2.44802         9.59438
   N       -2.17747        -3.02093         8.72389
   C       -2.62289        -2.00724         7.79743
   N       -1.20766        -2.84446        10.98588
   C       -0.39546        -1.84087        11.65375
   N       -0.38332        -0.63240        10.81286
   C        0.76098         0.11471        10.70502
   C        1.59629         0.33653        11.72817
   C        2.84526         1.08087        11.61761
   C        3.72280         0.83548        10.55533
   C        4.96973         1.42389        10.47247
   C        5.42195         2.26979        11.47811
   C        4.56727         2.54649        12.52130
   C        3.28219         1.99794        12.57233
   N        2.59247         2.55755        13.64963
   C        1.20214         2.37182        13.96908
   C        3.36786         3.44981        14.33259
   O        2.98975         4.12913        15.26126
   C        4.77553         3.37493        13.75166
   C        5.66356         2.61251        14.77566
   C        6.99756         2.28807        14.10665
   O        7.86661         3.06214        13.77999
   N        7.03244         0.93737        13.89164
   C        8.10174         0.27416        13.19842
   C        5.91649         0.30401        14.42223
   C        5.58577        -1.03259        14.39226
   C        4.38636        -1.43520        14.99954
   C        3.59089        -0.47958        15.64467
   C        3.94298         0.85847        15.68470
   C        5.09692         1.25429        15.04366
   C        3.92141        -2.80009        14.97623
   C        4.66890        -3.90386        14.74268
   C        4.19115        -5.23916        14.70908
   C        2.90354        -5.68767        14.60004
   C        2.52042        -7.05901        14.56838
   C        1.19747        -7.27744        14.35998
   C        0.43706        -6.09211        14.20295
   S        1.47193        -4.68749        14.38034
   C       -0.89812        -5.97061        13.90356
   C       -1.84276        -7.00549        13.67849
   C       -3.05929        -6.56516        13.27819
   C       -3.16062        -5.14564        13.13942
   S       -1.64941        -4.40512        13.66663
   C       -4.20121        -4.48899        12.56690
   C       -4.29477        -3.06413        12.33253
   C       -3.80125        -2.15259        13.28145
   C       -3.88057        -0.78665        13.11209
   C       -4.47417        -0.25033        11.97540
   C       -4.95655        -1.11913        11.02316
   C       -4.86936        -2.50703        11.18254
   N       -5.32172        -3.12267        10.01515
   C       -5.43056        -4.53160         9.74056
   C       -5.70628        -2.20042         9.08033
   O       -6.06363        -2.47304         7.95406
   C       -5.62820        -0.82372         9.72234
   C       -7.07764        -0.31720         9.91596
   C       -7.94599        -1.45514        10.46073
   O       -7.78227        -2.07110        11.49300
   N       -8.94117        -1.68604         9.56308
   C       -9.91624        -2.73013         9.71358
   C       -8.85249        -0.83422         8.46462
   C       -9.67449        -0.76981         7.36356
   C       -9.38715         0.17398         6.36732
   C       -8.26566         0.99727         6.52245
   C       -7.45043         0.92897         7.63964
   C       -7.75353         0.01447         8.62425
   C      -10.20660         0.33200         5.18465
   C      -11.44786        -0.15983         5.03810
   N      -12.22585        -0.04693         3.92270
   C      -11.95826         0.96148         2.88546
   N      -13.22102         1.28380         2.24803
   C      -14.18157         1.03508         3.30665
   N      -15.55209         0.87172         2.87980
   C      -16.24735         0.04571         3.85480
   C      -15.58894         0.09101         5.25024
   N      -14.25456        -0.47822         5.26015
   C      -13.65964        -0.27092         3.95369
   N      -16.58812        -0.61258         6.01547
   C      -17.85805        -0.06556         5.54071
   N      -17.59063         0.42997         4.19692
   C      -18.58351         0.45086         3.23809
   C      -19.89054         0.45717         3.46862
   H       -4.05238        -2.85172         6.58422
   H       -4.02227        -0.68071         5.79244
   H       -2.94039        -1.53391         4.65662
   H       -1.30197        -0.22255         5.52504
   H       -0.62083        -1.84873         7.03478
   H       -1.26601         0.62678         8.31655
   H       -2.27367        -0.62398        10.01035
   H       -0.17844        -2.71426         9.20528
   H       -2.94893        -3.40851         9.25320
   H       -3.36511        -1.31591         8.26282
   H       -2.16552        -2.79417        11.32652
   H        0.63139        -2.21516        11.76119
   H       -0.79940        -1.62771        12.64769
   H        0.90201         0.58438         9.74184
   H        1.38098        -0.08880        12.69679
   H        3.40740         0.14047         9.79129
   H        5.60902         1.20571         9.62985
   H        6.40766         2.70682        11.43889
   H        1.04567         1.43347        14.50528
   H        0.60131         2.37231        13.06037
   H        0.90725         3.20045        14.61450
   H        5.20861         4.35937        13.56901
   H        5.78807         3.23418        15.66443
   H        8.83866         1.03181        12.93417
   H        7.72751        -0.20366        12.29029
   H        8.56798        -0.47794        13.83829
   H        6.21174        -1.74912        13.88583
   H        2.68146        -0.80474        16.12843
   H        3.32312         1.57540        16.20083
   H        2.87720        -2.92428        15.22646
   H        5.73719        -3.79566        14.60772
   H        4.94660        -6.01506        14.74226
   H        3.25142        -7.83887        14.69357
   H        0.74680        -8.25171        14.29589
   H       -1.58364        -8.04210        13.80102
   H       -3.89181        -7.20423        13.04076
   H       -5.03340        -5.09540        12.24335
   H       -3.37500        -2.54770        14.19038
   H       -3.48925        -0.13002        13.87360
   H       -4.54823         0.81789        11.83850
   H       -6.25608        -4.97037        10.30516
   H       -4.50083        -5.05159         9.97606
   H       -5.64217        -4.63001         8.67450
   H       -5.09528        -0.10398         9.09654
   H       -7.06341         0.51968        10.62063
   H       -9.72306        -3.22410        10.66542
   H       -9.82809        -3.45366         8.90013
   H      -10.92545        -2.31331         9.71821
   H      -10.50893        -1.44332         7.25863
   H       -8.03625         1.71280         5.74647
   H       -6.59633         1.58414         7.73244
   H       -9.76832         0.92097         4.39235
   H      -11.92703        -0.72440         5.82287
   H      -11.23062         0.58899         2.16024
   H      -11.56069         1.87237         3.35499
   H      -13.41651         0.65478         1.47414
   H      -14.04047         1.85068         4.03837
   H      -16.01062         1.76931         2.76599
   H      -16.21812        -0.99893         3.48609
   H      -15.50242         1.15134         5.56076
   H      -14.30681        -1.46639         5.48695
   H      -13.88152        -1.10501         3.25811
   H      -16.47471        -0.49665         7.01585
   H      -18.22936         0.76557         6.16307
   H      -18.61338        -0.86392         5.53069
   H      -18.18952         0.52675         2.23405
   H      -20.30762         0.40455         4.45771
   H      -20.58544         0.53006         2.65374
*
