# ORCA input file
# SCF done       -185.457488634824          0.000550713211
! CAM-B3LYP def2-SVP def2/J RIJCOSX Grid4 TightSCF
%maxcore 5000
%tddft
    Mode sTDDFT
    Ethresh 5.0
    maxcore 5000
end

%pal
  nprocs 6
  end
* xyz 0 1
   C       13.83374        10.49479        -5.92216
   C       13.50733        11.64306        -6.58832
   F       14.15583        12.78587        -6.29576
   C       12.51292        11.68317        -7.57482
   C       11.84283        10.53239        -7.88461
   C       12.13767         9.32019        -7.22787
   C       13.15371         9.29999        -6.22829
   C       13.46985         8.09499        -5.55771
   C       12.78562         6.95308        -5.87320
   C       11.76147         6.98217        -6.86372
   C       11.44319         8.12791        -7.53343
   C       11.15584         5.64085        -6.97575
   O       10.30364         5.27020        -7.75057
   C       11.77525         4.84330        -5.87960
   C       12.89932         5.58909        -5.36666
   C       13.98619         5.06758        -4.71495
   C       14.15394         3.68972        -4.47537
   N       14.33358         2.57196        -4.28348
   C       15.08062         5.83482        -4.27189
   N       15.98387         6.41746        -3.86798
   C       11.17396         3.68703        -5.48716
   C       11.28865         2.95874        -4.27035
   C       10.85663         1.62577        -4.21113
   N       10.88429         0.85570        -3.14874
   C       11.32596         1.30370        -1.96769
   C       11.77322         2.65167        -1.86900
   C       11.74513         3.49201        -3.03358
   N       12.13433         4.73328        -2.75217
   S       12.52266         4.81869        -1.18770
   N       12.19648         3.29370        -0.78876
   C       11.27966         0.41760        -0.87875
   C       10.78150        -0.85443        -1.03704
   C       10.62461        -1.84603        -0.03699
   C       10.07841        -3.00572        -0.49350
   C        9.79281        -2.97645        -1.87743
   S       10.22563        -1.42088        -2.58546
   C        9.23209        -3.99505        -2.62204
   C        8.91353        -3.98056        -3.99971
   C        8.33807        -5.12984        -4.44399
   C        8.16145        -6.12071        -3.44094
   S        8.80443        -5.53484        -1.91431
   C        7.46936        -7.29570        -3.58882
   C        7.20285        -8.22291        -2.55656
   C        7.97885        -8.36667        -1.39170
   N        7.57315        -8.93874        -0.28468
   C        6.37799        -9.51390        -0.18787
   C        5.62047        -9.71095        -1.37125
   C        6.03405        -9.03209        -2.57202
   N        5.17587        -9.22079        -3.56855
   S        3.98156       -10.16752        -3.05178
   N        4.48037       -10.37278        -1.53732
   C        5.89258        -9.86592         1.11181
   C        6.27150        -9.23906         2.25492
   C        6.09692        -9.87575         3.59034
   O        5.37387       -10.80249         3.86950
   C        7.05022        -9.16856         4.47128
   C        7.37905        -9.43565         5.76914
   C        8.34266        -8.63036         6.41716
   C        8.95616        -7.56060         5.70140
   C        9.92077        -6.76715         6.35259
   C       10.24439        -7.03589         7.65325
   C        9.65073        -8.08055         8.37489
   C        8.71378        -8.86181         7.75772
   F       11.16449        -6.27768         8.27645
   C        8.59137        -7.30121         4.36024
   C        7.64936        -8.08970         3.75661
   C        7.04754        -8.02494         2.43090
   C        7.01723        -6.91799         1.62471
   C        6.14579        -6.78358         0.52282
   N        5.40582        -6.59526        -0.33471
   C        7.81450        -5.77438         1.80978
   N        8.47675        -4.83743         1.87217
   H       14.60722        10.50075        -5.17013
   H       12.29809        12.61865        -8.06655
   H       11.07219        10.53803        -8.64077
   H       14.23722         8.10764        -4.79989
   H       10.66773         8.12762        -8.28484
   H       10.43600         3.30378        -6.18664
   H       10.48403         1.15240        -5.11042
   H       11.62562         0.75862         0.08391
   H       10.91150        -1.66386         0.98318
   H        9.85739        -3.86265         0.12022
   H        9.10973        -3.11135        -4.60216
   H        8.01487        -5.30129        -5.45543
   H        6.97602        -7.47175        -4.53544
   H        8.98852        -7.98098        -1.35937
   H        5.20978       -10.70254         1.18425
   H        6.90819       -10.25092         6.29770
   H       10.39581        -5.95246         5.82875
   H        9.94568        -8.24490         9.39909
   H        8.24291        -9.67231         8.29324
   H        9.07242        -6.49004         3.83639
*
