# ORCA input file
# SCF done       -196.758987376088          0.000689515068
! CAM-B3LYP def2-SVP def2/J RIJCOSX Grid4 TightSCF
%maxcore 5000
%tddft
    Mode sTDDFT
    Ethresh 5.0
    maxcore 5000
end

%pal
  nprocs 6
  end
* xyz 0 1
   C       -1.12962        -0.71951        -2.24875
   C        0.09606        -0.48556        -2.80995
   C        0.76566        -1.40120        -3.64885
   N        1.34063        -2.10972        -4.34472
   C        0.85007         0.68700        -2.58643
   N        1.50953         1.61358        -2.43335
   C       -1.93257        -1.92370        -2.37622
   C       -3.01651        -1.85269        -1.46336
   C       -3.97126        -2.83881        -1.38450
   C       -3.86502        -3.92691        -2.25908
   C       -2.78619        -3.97644        -3.17608
   C       -1.80687        -2.99481        -3.24124
   S       -2.87563        -5.37643        -4.19766
   C       -4.33790        -5.87798        -3.39119
   C       -4.73753        -5.04009        -2.40359
  Br       -5.19863        -7.44997        -3.93951
   C       -2.97138        -0.56721        -0.73318
   O       -3.75837        -0.15983         0.08657
   C       -1.83604         0.17892        -1.35305
   C       -1.70980         1.52723        -1.32677
   C       -2.37963         2.40729        -0.42905
   O       -2.75674         3.62102        -0.91274
   C       -2.66641         2.37574         0.91806
   C       -2.54913         1.56637         2.14323
   O       -2.06204         0.48748         2.33710
   N       -3.11666         2.38259         3.11882
   C       -3.54199         3.63791         2.68637
   O       -4.03291         4.48244         3.38694
   C       -3.23205         3.63195         1.25178
   C       -3.30085         4.36910         0.08293
   C       -3.85701         5.63217        -0.28112
   C       -4.26276         5.79332        -1.56454
   C       -4.74280         6.93768        -2.23985
   S       -5.52385         6.66445        -3.76581
   C       -5.52624         8.36463        -4.15839
   C       -5.01023         9.10047        -3.08179
   C       -4.57530         8.30109        -2.00354
   O       -3.94376         8.73884        -0.88305
   C       -3.09995         9.86462        -1.07249
   C       -3.85160        11.19948        -1.06970
   C       -5.14409        11.11181        -1.88610
   O       -4.98425        10.45913        -3.13673
   C       -5.81672         8.82029        -5.45225
   C       -6.38844         8.03960        -6.43696
   C       -6.23956         8.14959        -7.83741
   C       -6.68665         7.05817        -8.53236
   C       -7.31234         6.08929        -7.72813
   S       -7.30369         6.59549        -6.05424
   C       -7.83141         4.83735        -8.03408
   C       -8.69954         4.10295        -7.20461
   C       -8.94111         2.83482        -7.64311
   C       -8.20039         2.48103        -8.79294
   S       -7.34191         3.87436        -9.41212
   C       -8.03371         1.17765        -9.22213
   C       -7.01142         0.72427       -10.04836
   C       -6.62283        -0.59492       -10.16418
   C       -7.28165        -1.79855        -9.73260
   C       -8.63198        -2.05362        -9.75745
   C       -9.20341        -3.27933        -9.36644
   N       -9.71667        -4.25334        -9.03863
   C       -9.58482        -1.14597       -10.26252
   N      -10.39278        -0.44763       -10.68435
   C       -6.23764        -2.77091        -9.41782
   C       -4.99706        -2.26595        -9.88160
   C       -5.21003        -0.92016       -10.46568
   O       -4.38895        -0.20811       -11.00024
   C       -3.81579        -2.94087        -9.69637
   C       -3.85775        -4.15286        -8.99488
   C       -5.10071        -4.63934        -8.52764
   C       -6.30183        -3.97147        -8.74046
   S       -4.91760        -6.12584        -7.64688
   C       -3.19540        -6.07700        -7.91644
   C       -2.77830        -5.00514        -8.63096
  Br       -2.11440        -7.44217        -7.21806
   H       -4.78533        -2.76607        -0.68053
   H       -1.00479        -3.06959        -3.95687
   H       -5.61588        -5.19750        -1.80470
   H       -1.10820         2.02675        -2.07726
   H       -3.19310         2.09286         4.08372
   H       -3.96790         6.39140         0.47460
   H       -4.22480         4.91587        -2.20007
   H       -2.38664         9.83189        -0.24604
   H       -2.55001         9.74930        -2.01504
   H       -3.19043        11.96071        -1.48410
   H       -4.11729        11.48370        -0.05152
   H       -5.50436        12.11385        -2.12981
   H       -5.91547        10.59249        -1.30402
   H       -5.46110         9.80883        -5.70828
   H       -5.73945         8.99006        -8.28508
   H       -6.59964         6.93256        -9.59730
   H       -9.12223         4.53732        -6.31560
   H       -9.57827         2.12590        -7.14585
   H       -8.65166         0.45023        -8.71387
   H       -6.33948         1.45660       -10.48212
   H       -2.88313        -2.54015       -10.06143
   H       -7.22639        -4.37614        -8.36255
   H       -1.75154        -4.81829        -8.88768
*
