# ORCA input file
# SCF done       -180.204043969486          0.000922233963
! CAM-B3LYP def2-SVP def2/J RIJCOSX Grid4 TightSCF
%maxcore 5000
%tddft
    Mode sTDDFT
    Ethresh 5.0
    maxcore 5000
end

%pal
  nprocs 6
  end
* xyz 0 1
   C       -6.02838        -1.23524        -5.47341
   C       -6.60312        -2.43076        -5.13667
   C       -6.92766        -3.43593        -6.07248
   N       -7.20801        -4.28749        -6.78880
   C       -7.02534        -2.79105        -3.83787
   N       -7.43735        -3.13889        -2.82482
   C       -5.74390        -0.77886        -6.82617
   C       -5.41540         0.59826        -6.77867
   C       -5.11039         1.33144        -7.90091
   C       -5.12379         0.66575        -9.13073
   C       -5.44498        -0.71406        -9.16950
   C       -5.75825        -1.45131        -8.03488
   S       -5.38995        -1.33633       -10.79055
   C       -4.94506         0.24550       -11.38343
   C       -4.84351         1.19151       -10.42189
  Br       -4.64750         0.48843       -13.21794
   C       -5.47280         1.07460        -5.38496
   O       -5.40198         2.22874        -5.03079
   C       -5.68442        -0.15320        -4.55864
   C       -5.45823        -0.32166        -3.22527
   C       -5.03347         0.64759        -2.28531
   O       -4.89778         1.95592        -2.60670
   C       -4.67528         0.50238        -0.95334
   C       -4.50586        -0.46940         0.13808
   O       -4.66625        -1.65945         0.17027
   N       -4.07398         0.31476         1.20454
   C       -3.92640         1.67576         0.92836
   O       -3.55802         2.50436         1.71944
   C       -4.31458         1.78380        -0.47863
   C       -4.46421         2.66299        -1.54327
   C       -4.24539         4.05825        -1.69575
   C       -4.48355         4.64978        -2.89170
   C       -4.30036         6.03272        -3.17224
   C       -4.58365         6.61150        -4.35703
   C       -5.11548         5.90565        -5.55414
   C       -4.38921         8.09440        -4.56864
   N       -4.35173         8.87621        -3.35642
   C       -3.25388         9.29320        -2.70996
   C       -1.96574         9.09384        -3.12232
   C       -0.84003         9.65267        -2.50836
   C        0.42185         9.49603        -3.04290
   C        1.64583        10.09730        -2.68445
   C        2.67616         9.83211        -3.54857
   C        2.30963         8.99471        -4.61751
   S        0.64608         8.51214        -4.47870
   C        2.99192         8.59320        -5.76413
   C        4.22362         8.95213        -6.32320
   C        4.39965         8.48428        -7.60292
   C        3.31738         7.73310        -8.11008
   S        2.10197         7.58034        -6.87589
   C        3.25556         7.15734        -9.37137
   C        2.26248         6.40892       -10.00141
   S        2.78574         5.52573       -11.42763
   C        1.28480         4.72034       -11.60637
   C        0.37936         5.10961       -10.65547
   C        0.89362         6.11654        -9.74822
   C        0.00366         6.70839        -8.86225
   C       -1.30057         6.25363        -8.73389
   N       -2.18590         6.95480        -7.89319
   O       -1.72564         7.64553        -6.99075
   O       -3.38918         6.86714        -8.11778
   C       -1.75385         5.16659        -9.53917
   N       -2.99762         4.49353        -9.28537
   O       -3.28823         4.25924        -8.13247
   O       -3.63153         4.11054       -10.24766
   C       -0.94551         4.63672       -10.50258
   H       -4.85762         2.37855        -7.83054
   H       -5.99068        -2.50019        -8.11406
   H       -4.58393         2.21946       -10.60743
   H       -5.55710        -1.31106        -2.79676
   H       -3.87309        -0.07663         2.11378
   H       -3.88757         4.59438        -0.82981
   H       -4.84849         4.01759        -3.68737
   H       -3.91010         6.63791        -2.36274
   H       -4.95268         4.83421        -5.51814
   H       -4.65173         6.29457        -6.45975
   H       -6.18807         6.08513        -5.64197
   H       -5.21151         8.46816        -5.18789
   H       -3.46696         8.25000        -5.13753
   H       -5.24109         8.99762        -2.89655
   H       -3.44327         9.86549        -1.81007
   H       -1.78442         8.49989        -4.00630
   H       -0.95699        10.26363        -1.62321
   H        1.73177        10.73419        -1.82119
   H        3.67109        10.22794        -3.44754
   H        4.93794         9.56297        -5.80024
   H        5.27217         8.68414        -8.19975
   H        4.17262         7.24786        -9.94311
   H        1.14319         4.01956       -12.40399
   H        0.26966         7.57769        -8.28800
   H       -1.29887         3.82550       -11.12085
*
