# ORCA input file
# SCF done       -166.728323563181          0.000940295804
! CAM-B3LYP def2-SVP def2/J RIJCOSX Grid4 TightSCF
%maxcore 5000
%tddft
    Mode sTDDFT
    Ethresh 5.0
    maxcore 5000
end

%pal
  nprocs 6
  end
* xyz 0 1
   C      -14.42814         4.23775        -0.58627
   C      -14.99553         3.20418         0.11651
   C      -16.37371         3.09144         0.38529
   N      -17.48573         2.94925         0.63373
   C      -14.27030         2.13051         0.67019
   N      -13.72384         1.23888         1.14417
   C      -15.14498         5.37795        -1.15204
   C      -14.21019         6.24816        -1.77008
   C      -14.58243         7.41241        -2.39674
   C      -15.94317         7.73632        -2.41671
   C      -16.86847         6.86344        -1.79782
   C      -16.49160         5.68537        -1.16293
   S      -18.49641         7.45205        -1.94140
   C      -17.92003         8.84429        -2.81892
   C      -16.57779         8.86889        -2.99621
  Br      -19.14357        10.13242        -3.42084
   C      -12.86441         5.68157        -1.61536
   O      -11.80775         6.15429        -2.02568
   C      -13.02900         4.42385        -0.88794
   C      -11.96261         3.59908        -0.61105
   N      -10.71995         3.94908        -0.95064
   C       -9.59055         3.21673        -0.75836
   S       -9.64911         1.68561         0.05054
   C       -7.93280         1.55957        -0.09213
   N       -7.31622         0.37544         0.31681
   O       -6.10351         0.30308         0.21986
   O       -8.03924        -0.51499         0.73183
   C       -7.35707         2.63779        -0.70890
   C       -8.29582         3.60014        -1.12475
   C       -7.88518         4.75797        -1.87991
   C       -8.60859         5.46667        -2.76665
   C       -8.02718         6.51387        -3.55364
   C       -8.65235         7.21629        -4.51523
   C      -10.09476         7.05942        -4.87477
   C       -7.82226         8.06367        -5.44804
   N       -7.34603         7.18785        -6.50895
   C       -8.09208         6.91441        -7.60719
   C       -8.11693         5.69190        -8.20071
   C       -8.77014         5.38096        -9.40623
   C       -8.95320         4.09263        -9.84123
   C       -9.52591         3.64578       -11.05529
   C       -9.59700         2.28989       -11.17643
   C       -9.11598         1.58885       -10.04797
   S       -8.51348         2.70352        -8.84923
   C       -9.12044         0.22639        -9.80902
   C       -9.48228        -0.82292       -10.67846
   C       -9.38668        -2.05963       -10.11531
   C       -8.97406        -2.05383        -8.75717
   S       -8.66950        -0.40916        -8.23931
   C       -8.81981        -3.17027        -7.97360
   C       -8.52981        -3.22121        -6.59620
   S       -8.12603        -4.76482        -5.85003
   C       -7.97585        -4.11784        -4.26448
   C       -8.22377        -2.76660        -4.28138
   C       -8.52785        -2.26931        -5.59094
   O       -8.80983        -0.94870        -5.54084
   C       -8.68275        -0.59848        -4.23360
   N       -8.93385         0.73417        -3.88659
   O       -8.83525         1.01678        -2.69690
   O       -9.23525         1.53096        -4.75306
   C       -8.33080        -1.64596        -3.41772
   H      -13.84862         8.05524        -2.85722
   H      -17.23543         5.05331        -0.70784
   H      -16.05572         9.65237        -3.51432
   H      -12.08888         2.64259        -0.12081
   H      -10.63738         4.87137        -1.40336
   H       -6.29948         2.70114        -0.89146
   H       -6.83771         5.00721        -1.75919
   H       -9.62990         5.20917        -2.99332
   H       -6.97660         6.71051        -3.37144
   H      -10.69693         6.83196        -4.00027
   H      -10.21883         6.25123        -5.59837
   H      -10.47429         7.97283        -5.32795
   H       -6.95259         8.48514        -4.93680
   H       -8.40141         8.87186        -5.89694
   H       -6.83613         6.38827        -6.14984
   H       -8.65203         7.74790        -8.00978
   H       -7.61293         4.87357        -7.70061
   H       -9.15862         6.18595       -10.01548
   H       -9.86282         4.34110       -11.80440
   H      -10.00246         1.77779       -12.03071
   H       -9.79162        -0.64167       -11.69246
   H       -9.61572        -2.97991       -10.62300
   H       -8.93421        -4.12852        -8.46203
   H       -7.73008        -4.75429        -3.44119
   H       -8.18605        -1.60708        -2.35774
*
