# ORCA input file
# SCF done       -241.129108864146          0.000798451829
! CAM-B3LYP def2-SVP def2/J RIJCOSX Grid4 TightSCF
%maxcore 5000
%tddft
    Mode sTDDFT
    Ethresh 5.0
    maxcore 5000
end

%pal
  nprocs 6
  end
* xyz 0 1
   C        4.74758       -15.73950        -2.74834
   C        6.02562       -16.27455        -2.77721
   C        6.21842       -17.50256        -3.41204
   C        7.51723       -18.06727        -3.45301
   N        8.56931       -18.51808        -3.48108
   C        5.14690       -18.19235        -4.01212
   C        5.37453       -19.43327        -4.65286
   N        5.53777       -20.43871        -5.17658
   C        3.86024       -17.65289        -3.97366
   C        3.68343       -16.43888        -3.34560
   C        2.42228       -15.67584        -3.18039
   O        1.33143       -16.04199        -3.55701
   C        2.79267       -14.46806        -2.40621
   C        4.22841       -14.49592        -2.18423
   C        4.99378       -13.50274        -1.62963
   C        6.39359       -13.57995        -1.46875
   N        7.52996       -13.58702        -1.30814
   C        4.51389       -12.25687        -1.17103
   N        4.21328       -11.21524        -0.79179
   C        1.94658       -13.56941        -1.81803
   C        0.55801       -13.31662        -2.03790
   C       -0.15149       -12.65884        -1.00862
   C       -1.47579       -12.35315        -1.17798
   C       -2.13353       -12.71072        -2.37326
   C       -1.43764       -13.31955        -3.41017
   C       -0.10216       -13.61122        -3.24296
   C       -3.52501       -12.34583        -2.26193
   C       -3.73527       -11.75825        -1.00332
   C       -2.43381       -11.66042        -0.23489
   C       -2.51003       -12.35826         1.13093
   C       -2.95264       -13.81251         1.01464
   C       -2.10850       -10.15410        -0.09064
   C       -0.73668        -9.81777         0.47871
   C       -4.98624       -11.31710        -0.63944
   C       -6.05515       -11.46723        -1.52924
   C       -5.83193       -12.06242        -2.77565
   C       -4.57938       -12.50177        -3.15126
   C       -7.39624       -10.98000        -1.19213
   C       -8.50922       -11.68905        -1.56308
   C       -9.80066       -11.17265        -1.31813
   C      -11.06172       -11.64817        -1.64607
   C      -11.43841       -12.92879        -2.31492
   C      -10.88236       -13.00500        -3.74981
   N      -11.71177       -13.89536        -4.53954
   C      -11.00347       -14.13708        -1.46663
   N      -11.56009       -15.37115        -2.00208
   C      -12.00355       -10.62704        -1.25430
   C      -13.33248       -10.52480        -1.44595
   C      -14.07369        -9.28764        -1.08809
   C      -13.28425        -8.29763        -0.28613
   C      -11.95695        -8.41946        -0.09421
   C      -11.25981        -9.53715        -0.60937
   C       -9.92050        -9.87705        -0.66165
   C       -8.75553        -9.19275        -0.24974
   C       -7.53571        -9.73189        -0.50840
   C      -15.42715        -9.54634        -0.47981
   C      -15.73524       -10.62398         0.23693
   C      -17.05453       -10.90374         0.78876
   C      -17.16992       -11.72603         1.91589
   C      -18.41571       -12.01231         2.42323
   C      -19.56969       -11.50398         1.80328
   C      -19.46716       -10.69009         0.68497
   C      -18.21237       -10.39599         0.19067
   C      -20.72910       -11.99667         2.51230
   C      -20.29267       -12.80605         3.57655
   C      -18.78394       -12.85417         3.62234
   C      -18.25439       -14.29360         3.49492
   C      -18.73530       -14.98976         2.22723
   C      -18.25675       -12.22012         4.92549
   C      -18.75026       -10.79398         5.13768
   C      -21.19982       -13.42575         4.39807
   C      -22.57187       -13.20444         4.19779
   C      -22.99273       -12.40456         3.12438
   C      -22.08444       -11.81059         2.27573
   C      -23.52371       -13.84730         5.06111
   C      -24.76161       -13.41794         5.41348
   C      -25.75692       -14.38197         5.95267
   O      -25.55021       -15.50543         6.34573
   C      -27.06134       -13.68766         5.84117
   C      -28.32417       -14.18545         6.08152
   C      -29.41693       -13.34266         5.87049
   C      -29.21582       -12.02181         5.42117
   C      -27.93318       -11.52319         5.19223
   C      -26.85163       -12.36193         5.40688
   C      -25.41599       -12.13048         5.27630
   C      -24.80654       -10.90280         5.28282
   C      -23.41514       -10.72132         5.42474
   N      -22.30117       -10.51401         5.60723
   C      -25.50625        -9.67999         5.23631
   N      -26.03812        -8.66458         5.17884
   C      -30.33785       -11.18826         5.19006
   N      -31.23720       -10.50592         4.99921
   C      -30.73007       -13.81705         6.09971
   N      -31.78582       -14.21946         6.28800
   H        6.87002       -15.77941        -2.32510
   H        3.02618       -18.16896        -4.42463
   H        2.38184       -12.94957        -1.04169
   H        0.36100       -12.43379        -0.08518
   H       -1.93527       -13.56163        -4.33671
   H        0.44643       -14.05611        -4.05487
   H       -3.21251       -11.81422         1.76574
   H       -1.52958       -12.32118         1.60723
   H       -3.94311       -13.87936         0.56981
   H       -2.98567       -14.27405         1.99886
   H       -2.26027       -14.37681         0.39342
   H       -2.87705        -9.71216         0.54762
   H       -2.19839        -9.69600        -1.07939
   H       -0.58716       -10.27331         1.45393
   H       -0.65302        -8.73959         0.59637
   H        0.05504       -10.14257        -0.19054
   H       -5.15652       -10.87978         0.33343
   H       -6.65624       -12.14972        -3.46789
   H       -4.42194       -12.94944        -4.12095
   H       -8.39938       -12.64589        -2.04935
   H      -12.52825       -12.96746        -2.40988
   H       -9.82404       -13.30862        -3.71353
   H      -10.92842       -12.00866        -4.20335
   H      -11.70546       -14.81345        -4.10251
   H      -11.34031       -13.98511        -5.47914
   H      -11.30115       -13.94871        -0.42021
   H       -9.91544       -14.23173        -1.48571
   H      -12.57218       -15.36032        -1.92017
   H      -11.21578       -16.16875        -1.47823
   H      -13.90454       -11.30163        -1.93514
   H      -14.27399        -8.79618        -2.05921
   H      -13.83361        -7.45363         0.10159
   H      -11.41053        -7.66751         0.45666
   H       -8.84592        -8.23800         0.24749
   H       -6.63818        -9.19865        -0.23206
   H      -16.15909        -8.76678        -0.63725
   H      -14.96827       -11.35911         0.44878
   H      -16.27655       -12.11876         2.38047
   H      -20.35083       -10.29958         0.20319
   H      -18.12400        -9.78445        -0.69421
   H      -18.57752       -14.86461         4.36756
   H      -17.16285       -14.26591         3.50192
   H      -19.82125       -15.05043         2.20985
   H      -18.33404       -15.99941         2.17916
   H      -18.40913       -14.44655         1.34290
   H      -17.16470       -12.22801         4.89543
   H      -18.57285       -12.84082         5.76631
   H      -18.43971       -10.15262         4.31549
   H      -18.33547       -10.39346         6.05963
   H      -19.83429       -10.76295         5.20942
   H      -20.87947       -14.04843         5.22024
   H      -24.05118       -12.29147         2.93703
   H      -22.42354       -11.21186         1.44407
   H      -23.25300       -14.83100         5.43274
   H      -28.46414       -15.20050         6.42111
   H      -27.81360       -10.50917         4.84398
*
