# ORCA input file
# SCF done       -212.474430558830          0.000985513511
! CAM-B3LYP def2-SVP def2/J RIJCOSX Grid4 TightSCF
%maxcore 5000
%tddft
    Mode sTDDFT
    Ethresh 5.0
    maxcore 5000
end

%pal
  nprocs 6
  end
* xyz 0 1
   C       -0.54617         3.11437         0.10357
   S        0.28074         3.35578        -1.37352
   C       -0.33890         1.88970        -2.07723
   C       -1.16885         1.24669        -1.16360
   C       -1.27335         1.95378         0.08107
   N       -2.02631         1.47426         1.11245
   C       -2.62234         0.34119         0.91246
   O       -3.37895        -0.21578         1.85319
   C       -3.48440         0.50378         3.07775
   C       -4.41067        -0.26707         3.99913
   C       -2.51783        -0.38278        -0.35049
   O       -3.17443        -1.53840        -0.40755
   C       -3.18250        -2.22796        -1.65302
   C       -4.18130        -1.61227        -2.62191
   N       -1.82552         0.07029        -1.35285
   C        0.05799         1.49482        -3.38930
   C       -0.46513         0.40919        -4.04227
   C       -0.05970        -0.02591        -5.30893
   C        1.02358         0.65285        -6.03569
   C        1.66165         1.75595        -5.59320
   S        1.30961         2.51968        -4.09769
   C        1.20315        -0.09859        -7.22777
   C        0.30610        -1.16762        -7.25359
   C        0.41725        -1.91533        -8.44906
   C        1.37907        -1.41629        -9.26782
   S        2.18757        -0.02070        -8.63564
   C       -0.49388        -1.12895        -6.05638
   C       -1.55038        -2.01956        -5.70745
   C       -1.68517        -3.27868        -6.17268
   C       -2.77597        -4.16258        -5.83466
   C       -4.04329        -3.69145        -5.59016
   C       -5.07217        -4.57960        -5.21063
   C       -6.40300        -4.36025        -4.88864
   C       -7.11576        -3.04681        -4.94865
   C       -8.08174        -3.03111        -6.14730
   N       -8.49340        -1.66888        -6.44955
   C       -7.79169        -2.65625        -3.61293
   N       -9.14412        -3.17892        -3.46001
   C       -6.96477        -5.64245        -4.54456
   C       -8.19472        -5.99199        -4.12223
   C       -8.54315        -7.40878        -3.82108
   C       -7.41282        -8.37989        -3.97476
   C       -6.18801        -8.01122        -4.39182
   C       -5.90924        -6.65572        -4.68756
   C       -4.76545        -5.99985        -5.09088
   C       -3.46264        -6.46157        -5.39413
   C       -2.51018        -5.57087        -5.76314
   C       -9.65772        -7.83965        -4.73889
   C      -10.82457        -8.32816        -4.31136
   C      -11.90053        -8.79903        -5.14324
   C      -13.03776        -9.32887        -4.59964
   C      -14.13315        -9.82123        -5.32134
   C      -14.16989        -9.68563        -6.78651
   C      -13.15198        -9.20687        -7.53187
   S      -11.65823        -8.66639        -6.88155
   C      -15.45300       -10.15573        -7.17773
   C      -16.16249       -10.56157        -6.04998
   C      -17.44618       -11.05062        -6.37583
   C      -17.67546       -11.00059        -7.71400
   S      -16.34849       -10.36840        -8.63176
   C      -15.33884       -10.38347        -4.87947
   C      -15.76605       -10.75285        -3.57512
   C      -14.96659       -11.00289        -2.50930
   C      -15.43575       -11.33589        -1.21340
   S      -14.28047       -11.65214         0.05141
   C      -15.48967       -11.92121         1.23215
   C      -16.74298       -11.77835         0.69662
   C      -16.72445       -11.44713        -0.69916
   N      -17.88269       -11.27551        -1.39023
   C      -18.98879       -11.40863        -0.72304
   O      -20.18126       -11.24050        -1.29674
   C      -20.19911       -10.98047        -2.69480
   C      -20.01551       -12.25733        -3.50501
   C      -19.00449       -11.73851         0.69782
   O      -20.20041       -11.85281         1.26857
   C      -20.20093       -12.18059         2.65440
   C      -21.64291       -12.31083         3.10890
   N      -17.91653       -11.92098         1.37847
   H       -0.45186         3.81997         0.90260
   H       -3.87008         1.50801         2.86915
   H       -2.48492         0.61346         3.51357
   H       -5.39135        -0.36803         3.54329
   H       -4.50800         0.25867         4.94436
   H       -4.01135        -1.26033         4.18172
   H       -3.47186        -3.25075        -1.40194
   H       -2.17463        -2.22331        -2.08053
   H       -5.15313        -1.52251        -2.14248
   H       -4.27766        -2.25389        -3.49164
   H       -3.85040        -0.62302        -2.92963
   H       -1.22726        -0.14275        -3.51153
   H        2.44651         2.24036        -6.15260
   H       -0.18599        -2.76616        -8.70794
   H        1.67811        -1.78333       -10.23046
   H       -2.26602        -1.64635        -4.98697
   H       -0.89845        -3.70257        -6.78185
   H       -4.25910        -2.64128        -5.72565
   H       -6.36849        -2.27390        -5.15120
   H       -8.91728        -3.72046        -5.95339
   H       -7.53857        -3.40467        -7.01989
   H       -9.07217        -1.29205        -5.70702
   H       -9.03514        -1.64441        -7.30596
   H       -7.76385        -1.55813        -3.52574
   H       -7.19014        -3.06945        -2.79913
   H       -9.79149        -2.67530        -4.05699
   H       -9.45385        -3.05226        -2.50290
   H       -8.96920        -5.25114        -3.97967
   H       -8.92018        -7.45856        -2.78955
   H       -7.64544        -9.40975        -3.74883
   H       -5.39846        -8.74262        -4.49320
   H       -3.24425        -7.51806        -5.33186
   H       -1.50885        -5.90540        -5.99539
   H       -9.43861        -7.76011        -5.79438
   H      -11.01304        -8.40460        -3.24714
   H      -13.09421        -9.33936        -3.52063
   H      -13.20359        -9.13663        -8.60710
   H      -18.15977       -11.42002        -5.66302
   H      -18.55760       -11.30411        -8.24338
   H      -16.83114       -10.87998        -3.44040
   H      -13.89115       -10.98994        -2.61468
   H      -15.22307       -12.16255         2.24018
   H      -19.41646       -10.25432        -2.93873
   H      -21.18258       -10.54298        -2.88135
   H      -19.01556       -12.65676        -3.35335
   H      -20.16449       -12.04656        -4.56067
   H      -20.74243       -13.00263        -3.19143
   H      -19.67575       -11.39233         3.20651
   H      -19.64764       -13.11564         2.79945
   H      -22.17182       -11.37651         2.94254
   H      -21.67327       -12.55525         4.16672
   H      -22.14201       -13.09524         2.54660
*
