# ORCA input file
# SCF done       -199.792807582728          0.000953357331
! CAM-B3LYP def2-SVP def2/J RIJCOSX Grid4 TightSCF
%maxcore 5000
%tddft
    Mode sTDDFT
    Ethresh 5.0
    maxcore 5000
end

%pal
  nprocs 6
  end
* xyz 0 1
   C      -13.31946        -0.94039        -1.31755
   C      -14.05508        -1.81436        -2.10288
   C      -13.77683        -3.17466        -2.11439
   C      -12.75820        -3.70233        -1.33592
   C      -12.01456        -2.83967        -0.54646
   C      -12.29234        -1.45249        -0.53969
   C      -11.36096        -0.79063         0.35985
   C      -11.42919         0.49892         0.80466
   C      -12.41870         1.42190         0.40275
   N      -13.19235         2.21562         0.10621
   C      -10.56279         1.05237         1.77284
   N       -9.90639         1.53864         2.57923
   C      -10.36212        -1.79358         0.73744
   C      -10.92263        -3.09878         0.37817
   C      -10.62171        -4.29787         0.95862
   C       -9.73717        -4.44563         2.05012
   N       -9.08746        -4.61882         2.97949
   C      -11.21668        -5.52085         0.58439
   N      -11.65289        -6.54226         0.29589
   C       -9.11078        -1.50178         1.16311
   C       -7.98190        -2.40468         1.23524
   C       -7.78385        -3.32382         0.22034
   C       -6.67814        -4.17954         0.22788
   C       -5.78626        -4.10450         1.29056
   C       -5.93413        -3.18110         2.32663
   C       -7.04963        -2.30575         2.30274
   C       -7.25041        -1.39622         3.37405
   C       -6.36758        -1.32191         4.39897
   C       -5.21921        -2.15749         4.45040
   C       -4.99139        -3.09812         3.41865
   C       -3.84920        -3.90869         3.51034
   C       -2.97537        -3.79327         4.56412
   C       -3.20432        -2.86180         5.57741
   C       -4.31265        -2.05743         5.51862
   C       -6.47832        -5.16189        -0.81439
   S       -5.79296        -6.68739        -0.40950
   C       -5.92473        -7.30449        -2.02464
   C       -6.44879        -6.32285        -2.87469
   C       -6.77021        -5.10764        -2.17779
   C       -7.26661        -4.00583        -2.90570
   C       -7.46954        -4.11807        -4.24883
   S       -8.10029        -2.71405        -5.16467
   C       -7.11876        -5.30164        -4.95607
   O       -7.25599        -5.37656        -6.30032
   C       -6.61638        -6.37701        -4.27183
   C       -5.49837        -8.64812        -2.22012
   C       -5.71366        -9.44516        -3.28611
   C       -5.19183       -10.79255        -3.39866
   C       -4.02164       -11.12771        -2.74372
   C       -3.44803       -12.39845        -2.86970
   C       -4.08557       -13.35251        -3.65171
   C       -5.26041       -13.06276        -4.34679
   C       -5.84137       -11.77504        -4.20287
   C       -7.09151       -11.51865        -4.82637
   C       -7.70748       -12.45313        -5.59038
   C       -7.11977       -13.72535        -5.82269
   C       -5.88854       -14.04270        -5.20417
   C       -5.32236       -15.29673        -5.48222
   C       -5.94638       -16.19499        -6.31335
   C       -7.17005       -15.88155        -6.90543
   C       -7.74529       -14.66150        -6.66210
   C       -2.23749       -12.68922        -2.14109
   C       -1.24158       -13.53939        -2.49173
   C       -0.23682       -14.06331        -1.56446
   C        0.16379       -13.50475        -0.38327
   C       -0.29321       -12.26830         0.12256
   N       -0.61201       -11.26694         0.58457
   C        1.13893       -14.07031         0.46649
   N        1.92418       -14.47832         1.19695
   C        0.27143       -15.29214        -2.15561
   C       -0.23489       -15.41263        -3.47076
   C        0.08736       -16.50981        -4.25327
   C        0.91510       -17.48421        -3.71734
   C        1.41806       -17.36475        -2.42879
   C        1.10446       -16.27140        -1.63625
   C       -1.04549       -14.24150        -3.76207
   C       -1.34980       -13.76347        -5.00539
   C       -1.08378       -14.46420        -6.20020
   N       -0.91413       -15.01263        -7.19381
   C       -1.89228       -12.48192        -5.24746
   N       -2.25939       -11.42795        -5.51266
   H      -13.54284         0.11400        -1.32374
   H      -14.85436        -1.42801        -2.71656
   H      -14.36076        -3.83346        -2.73881
   H      -12.54758        -4.75945        -1.35745
   H       -8.89093        -0.46819         1.39406
   H       -8.49834        -3.38756        -0.58630
   H       -4.95207        -4.78771         1.28886
   H       -8.12202        -0.75991         3.37438
   H       -6.52582        -0.62030         5.20492
   H       -3.63642        -4.63936         2.74669
   H       -2.10296        -4.42819         4.60908
   H       -2.51011        -2.77985         6.40031
   H       -4.50624        -1.33173         6.29536
   H       -7.46128        -3.06591        -2.41532
   H       -9.12057        -3.37185        -5.72821
   H       -7.42183        -4.48817        -6.65479
   H       -6.30955        -7.23578        -4.84184
   H       -4.98525        -9.06377        -1.36133
   H       -6.30518        -9.08390        -4.10990
   H       -3.49561       -10.38428        -2.16537
   H       -3.67654       -14.35005        -3.67954
   H       -7.57277       -10.56643        -4.67079
   H       -8.66269       -12.24163        -6.04928
   H       -4.37167       -15.57548        -5.05476
   H       -5.48408       -17.15011        -6.51409
   H       -7.65230       -16.59641        -7.55505
   H       -8.68746       -14.39748        -7.12058
   H       -2.16323       -12.19985        -1.17865
   H       -0.30291       -16.61603        -5.25266
   H        1.16922       -18.34834        -4.31183
   H        2.06122       -18.13602        -2.03354
   H        1.49837       -16.19731        -0.63589
*
