# ORCA input file
# SCF done       -220.804556332597          0.000565491477
! CAM-B3LYP def2-SVP def2/J RIJCOSX Grid4 TightSCF
%maxcore 5000
%tddft
    Mode sTDDFT
    Ethresh 5.0
    maxcore 5000
end

%pal
  nprocs 6
  end
* xyz 0 1
   C        4.19882        -3.75167        -2.52400
   C        5.54089        -4.02180        -2.51579
   C        6.51878        -3.18348        -3.09332
   N        7.36108        -2.54262        -3.53680
   C        6.13781        -5.17839        -1.96828
   N        6.70171        -6.09469        -1.56716
   C        3.56783        -2.61161        -3.17966
   C        2.17340        -2.75786        -3.09529
   C        1.30895        -1.82750        -3.63538
   C        1.84979        -0.72154        -4.27840
   C        3.23831        -0.56482        -4.36369
   C        4.10505        -1.50471        -3.81764
  Cl        3.89357         0.81222        -5.15317
  Cl        0.80929         0.45710        -4.96849
   C        1.83690        -4.00026        -2.36517
   O        0.71889        -4.39162        -2.11497
   C        3.14349        -4.58187        -1.96146
   C        3.34616        -5.56997        -1.04515
   C        2.39694        -6.48124        -0.47569
   C        1.27468        -6.95030        -1.17919
   C        0.40314        -7.80981        -0.55864
   C        0.60449        -8.18603         0.78338
   C        1.73712        -7.76745         1.47289
   C        2.63490        -6.94493         0.83097
   C       -0.51979        -8.98222         1.21514
   C       -1.41654        -9.10509         0.13969
   C       -0.86638        -8.42786        -1.09737
   C       -1.82980        -7.37236        -1.66042
   C       -2.17292        -6.29327        -0.64054
   C       -0.57711        -9.54202        -2.13205
   C        0.21545        -9.11559        -3.36047
   C       -2.59708        -9.79088         0.28708
   C       -2.90468       -10.37324         1.52610
   C       -2.01340       -10.22069         2.59716
   C       -0.82533        -9.53724         2.45128
   C       -4.14079       -11.09252         1.71303
   S       -4.98286       -10.98691         3.21807
   C       -6.30518       -11.96293         2.66365
   C       -6.07574       -12.38690         1.34871
   C       -4.84020       -11.89950         0.81501
   C       -4.42951       -12.32271        -0.46645
   C       -5.24137       -13.13687        -1.20372
   S       -4.76445       -13.70853        -2.81913
   C       -6.50203       -13.57473        -0.70314
   O       -7.32040       -14.36596        -1.43466
   C       -6.89527       -13.21248         0.55868
   C       -7.42748       -12.24119         3.48044
   C       -7.55852       -11.83426         4.76350
   C       -8.67570       -12.07368         5.63653
   C       -8.57480       -11.66049         6.97676
   C       -9.62440       -11.85932         7.83718
   C      -10.80763       -12.47407         7.38712
   C      -10.92080       -12.89299         6.06632
   C       -9.86187       -12.69254         5.20859
   C      -11.74724       -12.51235         8.47916
   C      -11.14827       -11.92610         9.61172
   C       -9.71987       -11.53508         9.31232
   C       -8.71229       -12.45426        10.04421
   C       -8.79778       -12.44909        11.56457
   C       -9.45177       -10.05303         9.61110
   C      -10.34561        -9.12595         8.79527
   C      -11.86051       -11.74358        10.76923
   C      -13.19591       -12.18446        10.84057
   C      -13.76147       -12.81875         9.71150
   C      -13.05962       -12.97300         8.53952
   C      -14.04203       -12.05835        11.98395
   C      -13.93194       -11.44127        13.20069
   C      -15.00118       -11.50464        14.19427
   C      -16.09710       -12.32682        14.19019
   C      -17.08276       -12.33152        15.20171
   N      -17.92103       -12.38932        15.98349
   C      -16.41740       -13.30994        13.22797
   N      -16.76882       -14.14412        12.52018
   C      -14.67655       -10.56810        15.26598
   C      -13.41566       -10.01123        15.00500
   C      -12.87726       -10.54870        13.73696
   O      -11.78887       -10.26912        13.27973
   C      -12.82972        -9.09457        15.85388
   C      -13.52594        -8.71629        16.99426
   C      -14.78858        -9.25835        17.25948
   C      -15.37108       -10.18574        16.40304
  Cl      -15.64497        -8.77476        18.66785
  Cl      -12.83484        -7.57797        18.07844
   H        0.24124        -1.95988        -3.55899
   H        5.16815        -1.34799        -3.89808
   H        4.34795        -5.66239        -0.64048
   H        1.11575        -6.63947        -2.19677
   H        1.90816        -8.07922         2.49209
   H        3.51996        -6.60646         1.35012
   H       -2.74408        -7.87269        -1.98804
   H       -1.37372        -6.89658        -2.52839
   H       -2.58240        -6.73148         0.26761
   H       -2.90956        -5.61060        -1.05699
   H       -1.28573        -5.71993        -0.38416
   H       -1.53914        -9.95020        -2.45221
   H       -0.03014       -10.34132        -1.62382
   H       -0.27251        -8.29748        -3.88303
   H        0.29453        -9.95523        -4.04818
   H        1.22121        -8.81010        -3.08547
   H       -3.31223        -9.84164        -0.51955
   H       -2.26869       -10.66315         3.54912
   H       -0.14750        -9.43506         3.28509
   H       -3.46127       -12.02682        -0.84048
   H       -3.56598       -13.13617        -2.81490
   H       -6.92493       -14.56708        -2.29258
   H       -7.83687       -13.58359         0.92716
   H       -8.20536       -12.82329         3.00855
   H       -6.74023       -11.27221         5.19919
   H       -7.66527       -11.18388         7.31373
   H      -11.82666       -13.36480         5.71574
   H       -9.95417       -13.00949         4.18155
   H       -7.70800       -12.15087         9.73979
   H       -8.86874       -13.47619         9.68758
   H       -8.68429       -11.44686        11.96726
   H       -8.00123       -13.06924        11.97068
   H       -9.74700       -12.85539        11.90233
   H       -8.40433        -9.83293         9.39439
   H       -9.62507        -9.86773        10.67126
   H      -10.18535        -9.27121         7.72887
   H      -10.12818        -8.08846         9.03799
   H      -11.39417        -9.31613         9.01384
   H      -11.41752       -11.25114        11.61590
   H      -14.77976       -13.17597         9.77075
   H      -13.52022       -13.43699         7.68046
   H      -14.99401       -12.55442        11.83085
   H      -11.85680        -8.68472        15.63319
   H      -16.34578       -10.57729        16.64209
*
