# ORCA input file
# SCF done       -205.459764938614          0.000457133183
! CAM-B3LYP def2-SVP def2/J RIJCOSX Grid4 TightSCF
%maxcore 5000
%tddft
    Mode sTDDFT
    Ethresh 5.0
    maxcore 5000
end

%pal
  nprocs 6
  end
* xyz 0 1
   C       -8.36381        -4.88464        -5.14932
   C       -7.04137        -4.52095        -5.04859
   C       -6.30254        -3.93465        -6.09404
   N       -5.64073        -3.48512        -6.91796
   C       -6.29088        -4.59739        -3.86072
   N       -5.64957        -4.57529        -2.90802
   C       -9.25435        -4.51058        -6.24910
   C      -10.58633        -4.68693        -5.83333
   C      -11.64937        -4.37061        -6.65251
   C      -11.37808        -3.87639        -7.92330
   C      -10.05682        -3.70878        -8.34780
   C       -8.98658        -4.01918        -7.51473
  Cl       -9.73593        -3.10765        -9.92498
  Cl      -12.67615        -3.47168        -8.97391
   C      -10.60132        -5.24155        -4.45970
   O      -11.56629        -5.48490        -3.77065
   C       -9.17824        -5.48042        -4.12250
   C       -8.87444        -6.19452        -2.99069
   C       -7.68572        -6.84009        -2.62266
   C       -6.62767        -7.36044        -3.39192
   C       -6.55411        -7.46026        -4.78921
   C       -5.38941        -7.90677        -5.36313
   C       -4.30252        -8.30861        -4.58272
   C       -4.36908        -8.36434        -3.20193
   C       -5.55171        -7.85683        -2.58209
   C       -5.81635        -7.69890        -1.23372
   S       -7.34815        -7.04566        -0.92668
   C       -3.25871        -8.90967        -2.45607
   C       -3.35382        -9.57509        -1.29098
   C       -2.26424       -10.02627        -0.45942
   C       -2.56147       -10.42015         0.82547
   C       -1.53472       -10.71437         1.74790
   C       -1.56173       -11.03035         3.09924
   C       -2.71561       -11.24108         4.02716
   C       -3.35613        -9.90892         4.47211
   N       -3.90010        -9.16403         3.35000
   C       -3.77269       -12.19791         3.45567
   N       -3.15387       -13.47989         3.15710
   C       -0.18306       -11.11230         3.52814
   C        0.35153       -11.28083         4.75033
   C        1.82712       -11.23059         4.96963
   C        2.63872       -11.13715         3.71929
   C        2.08728       -10.94653         2.50669
   C        0.67995       -10.88866         2.36091
   C       -0.14971       -10.63791         1.28914
   C        0.12174       -10.30839        -0.06078
   C       -0.89877       -10.00346        -0.89893
   C        2.22485       -12.34245         5.90141
   C        2.95768       -13.40857         5.56810
   C        3.32607       -14.43703         6.49085
   C        4.13176       -15.55465         6.25934
   C        4.74403       -15.93772         5.05152
   C        5.51462       -17.07029         5.01682
   C        5.71153       -17.85513         6.15862
   C        5.13811       -17.53929         7.38007
   C        4.31871       -16.35978         7.43862
   C        3.64946       -15.83833         8.51904
   S        2.80926       -14.40267         8.13955
   C        5.33503       -18.32309         8.55863
   C        6.12334       -19.42514         8.68807
   C        6.23720       -20.08623         9.92810
   C        7.01213       -21.18954        10.17060
   C        7.16132       -21.87997        11.43568
   C        6.56535       -21.56559        12.63037
   C        6.76124       -22.28606        13.82775
   N        6.87521       -22.82459        14.83504
   C        5.67947       -20.49064        12.85211
   N        4.95392       -19.64098        13.11935
   C        8.08297       -22.99477        11.22221
   C        8.49151       -22.99794         9.87749
   C        7.84693       -21.87626         9.15916
   O        7.98872       -21.59854         7.98682
   C        9.36759       -23.94248         9.38412
   C        9.85139       -24.91127        10.25447
   C        9.45130       -24.91604        11.59500
   C        8.56752       -23.96208        12.08768
  Cl       10.05700       -26.11824        12.66194
  Cl       10.94409       -26.10495         9.68005
   H      -12.66462        -4.50258        -6.31344
   H       -7.98025        -3.87757        -7.87391
   H       -9.69930        -6.28288        -2.28875
   H       -7.40672        -7.20523        -5.39802
   H       -5.30959        -7.95789        -6.43876
   H       -3.40367        -8.64729        -5.07675
   H       -5.15829        -7.88065        -0.40776
   H       -2.29288        -8.77824        -2.92529
   H       -4.33801        -9.78074        -0.89054
   H       -3.58986       -10.43422         1.15197
   H       -2.32490       -11.72031         4.93048
   H       -2.59850        -9.33899         5.03770
   H       -4.18202       -10.13770         5.15132
   H       -3.14365        -8.79341         2.78375
   H       -4.44738        -8.37917         3.68560
   H       -4.26756       -11.73141         2.59431
   H       -4.53432       -12.37135         4.22178
   H       -2.43524       -13.35805         2.45002
   H       -3.84383       -14.12665         2.79112
   H       -0.25903       -11.43391         5.62975
   H        2.00815       -10.29473         5.53169
   H        3.71005       -11.17043         3.84860
   H        2.70916       -10.83741         1.62975
   H        1.14618       -10.28584        -0.40316
   H       -0.69078        -9.74248        -1.92478
   H        1.85207       -12.24839         6.91352
   H        3.31934       -13.52213         4.55597
   H        4.60306       -15.34181         4.16317
   H        5.98534       -17.36996         4.09265
   H        6.32905       -18.73506         6.07421
   H        3.59424       -16.20520         9.52396
   H        4.80607       -17.99166         9.44310
   H        6.68913       -19.81775         7.85854
   H        5.66271       -19.67156        10.74650
   H        9.66747       -23.92612         8.34824
   H        8.28272       -23.99926        13.12623
*
