# ORCA input file
# SCF done       -280.926534058471          0.000903992541
! CAM-B3LYP def2-SVP def2/J RIJCOSX Grid4 TightSCF
%maxcore 5000
%tddft
    Mode sTDDFT
    Ethresh 5.0
    maxcore 5000
end

%pal
  nprocs 6
  end
* xyz 0 1
   C        4.99322         0.31894         3.57610
   C        5.00153         1.26115         2.46757
   C        4.17091         1.19593         1.34729
   C        4.26201         2.11618         0.30962
   C        5.19367         3.14806         0.37207
   C        6.01227         3.26056         1.49399
   C        5.90211         2.33380         2.52275
   F        6.68502         2.46558         3.59008
   F        6.88978         4.25753         1.57774
   F        5.28924         4.02558        -0.62205
   F        3.45246         2.00815        -0.74506
   F        3.21761         0.25614         1.26223
   C        4.82364        -1.01282         3.51149
   C        4.83045        -1.83148         4.73414
   C        4.26497        -1.38750         5.93377
   C        4.22894        -2.19083         7.06680
   C        4.77565        -3.47070         7.03522
   C        5.35275        -3.93359         5.85732
   C        5.36944        -3.11987         4.73109
   F        5.93685        -3.60390         3.61768
   F        5.88016        -5.15647         5.80496
   F        4.74035        -4.24427         8.11681
   F        3.66107        -1.73986         8.18488
   F        3.70122        -0.18237         6.00694
   C        4.62290        -1.75934         2.25384
   C        3.49443        -2.55841         2.07514
   C        2.35388        -2.79770         2.99442
   O        2.21526        -2.40751         4.12967
   N        1.46048        -3.59623         2.29102
   C        1.93801        -3.93197         1.01187
   O        1.35793        -4.62617         0.22493
   C        3.24700        -3.24791         0.88554
   C        4.12225        -3.20782        -0.18124
   C        5.26711        -2.43896        -0.00149
   C        5.51929        -1.72757         1.17355
   C        6.80681        -1.00248         1.16365
   O        7.28536        -0.33083         2.03128
   S        7.61620        -1.24943        -0.41425
   C        6.30551        -2.30987        -1.04294
   O        6.31609        -2.80154        -2.12781
   C        0.20429        -4.02550         2.70857
   C       -0.37992        -3.68244         3.86664
   C       -1.69441        -4.07514         4.25737
   N       -2.21909        -3.61470         5.44411
   C       -3.49023        -4.07921         5.56466
   C       -4.62248        -4.06057         6.36455
   C       -5.58484        -4.83450         5.69399
   N       -5.04343        -5.32166         4.52093
   C       -3.76852        -4.87311         4.41774
   C       -2.64045        -4.86832         3.60093
   C       -6.91728        -5.04378         6.11120
   C       -7.84169        -5.78263         5.44486
   C       -9.19221        -6.00572         5.84777
   C       -9.83346        -7.20967         5.48244
   C       -9.31879        -8.31913         4.65267
   O       -8.25521        -8.42396         4.09211
   N      -10.33986        -9.27918         4.62596
   C      -11.46066        -8.87928         5.37119
   O      -12.45980        -9.53037         5.50231
   C      -11.11490        -7.54735         5.91431
   C      -11.86177        -6.71770         6.72880
   C      -11.28120        -5.49216         7.03458
   C      -10.01076        -5.11620         6.59865
   C       -9.70930        -3.69827         6.86529
   O       -8.80596        -3.02480         6.46855
   S      -11.02889        -2.98376         7.87547
   C      -12.00728        -4.47583         7.82813
   O      -13.07123        -4.59670         8.35445
   C      -10.32493       -10.51226         3.99754
   C       -9.30654       -11.00793         3.28879
   C       -9.32616       -12.31972         2.67673
   C      -10.63416       -12.88431         2.28746
   C      -10.98020       -14.19856         2.60317
   C      -12.21367       -14.73730         2.25217
   C      -13.13511       -13.95956         1.55625
   C      -12.80995       -12.64802         1.22003
   C      -11.57491       -12.12633         1.58845
   F      -11.28241       -10.87304         1.22966
   F      -13.67909       -11.89830         0.54365
   F      -14.31495       -14.46693         1.21074
   F      -12.51401       -15.99376         2.57778
   F      -10.11994       -14.96339         3.28001
   C       -8.19835       -13.01025         2.40328
   C       -6.85669       -12.60242         2.79109
   C       -6.54183       -12.07005         4.04616
   C       -5.24696       -11.68292         4.37202
   C       -4.21893       -11.83530         3.44652
   C       -4.49497       -12.40085         2.20350
   C       -5.79452       -12.78030         1.89672
   F       -6.04738       -13.31150         0.69685
   F       -3.51420       -12.56844         1.31591
   F       -2.97923       -11.45294         3.75052
   F       -4.98686       -11.16833         5.57551
   F       -7.48136       -11.97356         4.99189
   H        5.22751         0.76966         4.52961
   H        3.93997        -3.73684        -1.10301
   H       -0.27438        -4.65718         1.97441
   H        0.14843        -3.04521         4.56043
   H       -1.73430        -3.01064         6.08584
   H       -4.77676        -3.55477         7.29603
   H       -5.52327        -5.92061         3.87187
   H       -2.50345        -5.36068         2.66039
   H       -7.17170        -4.57230         7.04771
   H       -7.53990        -6.34722         4.57450
   H      -12.84445        -6.97957         7.08519
   H      -11.24125       -11.06291         4.17359
   H       -8.40143       -10.43286         3.17423
   H       -8.25005       -13.91832         1.81984
*
