# ORCA input file
# SCF done       -199.089295185483          0.000756324391
! CAM-B3LYP def2-SVP def2/J RIJCOSX Grid4 TightSCF
%maxcore 5000
%tddft
    Mode sTDDFT
    Ethresh 5.0
    maxcore 5000
end

%pal
  nprocs 6
  end
* xyz 0 1
   C       -7.73855         5.52744        -7.58063
   C       -7.80160         6.34086        -8.68591
   C       -8.08863         5.88214        -9.98725
   N       -8.32070         5.58058       -11.07143
   C       -7.55805         7.72910        -8.71175
   N       -7.35752         8.85354        -8.84017
   C       -7.90673         4.07730        -7.60191
   C       -7.63845         3.57493        -6.29887
   C       -7.70954         2.24416        -6.00872
   C       -8.06496         1.33372        -7.02975
   C       -8.34244         1.82866        -8.33561
   C       -8.25691         3.21419        -8.60589
   C       -8.70248         0.91366        -9.34575
   C       -8.78407        -0.42621        -9.08101
   C       -8.50953        -0.91269        -7.79445
   C       -8.15732        -0.05129        -6.79108
   C       -7.31081         4.69659        -5.39272
   O       -7.03174         4.59728        -4.21727
   C       -7.43578         5.92041        -6.22060
   C       -7.38052         7.21915        -5.78249
   C       -7.05299         7.72675        -4.51960
   O       -6.59531         7.00635        -3.47073
   C       -6.36241         7.83550        -2.44562
   C       -6.67198         9.14391        -2.81138
   C       -7.11052         9.08236        -4.13236
   O       -7.53068        10.06928        -4.93751
   C       -5.86199         7.27200        -1.23932
   C       -5.55252         7.98705        -0.13520
   C       -5.02252         7.47828         1.10003
   C       -4.69260         8.37337         2.09495
   C       -4.13309         7.92209         3.30570
   C       -3.70059         8.61772         4.42465
   C       -3.74766        10.09649         4.62050
   C       -4.45806        10.49392         5.92747
   N       -5.14283        11.76082         5.73876
   C       -2.33449        10.70113         4.53561
   N       -1.84697        10.58897         3.17311
   C       -3.16925         7.63610         5.34266
   C       -2.57874         7.75925         6.54523
   C       -2.07677         6.57244         7.30063
   C       -2.32367         5.25863         6.63713
   C       -2.89790         5.15149         5.42567
   C       -3.32836         6.30689         4.72909
   C       -3.91167         6.49345         3.49492
   C       -4.28455         5.59385         2.46671
   C       -4.81724         6.07170         1.31640
   C       -2.61608         6.66755         8.70288
   C       -3.50310         5.82786         9.24591
   C       -3.98835         5.98622        10.58195
   O       -3.60489         7.03683        11.33455
   C       -4.19983         6.93530        12.54492
   C       -4.98690         5.79044        12.57864
   C       -4.85491         5.18328        11.32425
   O       -5.42236         4.04715        10.86655
   C       -3.96983         7.92546        13.52774
   C       -3.18554         9.01784        13.30904
   C       -2.97068        10.00085        14.29416
   C       -2.21765        11.13178        14.11847
   C       -1.97067        12.16745        15.10138
   C       -2.40679        12.19571        16.40269
   C       -2.12545        13.23854        17.30924
   N       -1.93636        14.05033        18.09957
   C       -3.18675        11.20594        17.03430
   N       -3.81944        10.45092        17.62617
   C       -1.15379        13.19836        14.46771
   C       -0.88369        12.80340        13.12700
   C       -1.52972        11.50607        12.85870
   O       -1.49780        10.89179        11.81017
   C       -0.13632        13.57322        12.28370
   C        0.38415        14.80146        12.74939
   C        0.11566        15.20636        14.08818
   C       -0.65965        14.38545        14.93954
   C        0.63490        16.43561        14.54240
   C        1.38364        17.22809        13.71546
   C        1.64870        16.82753        12.39758
   C        1.15966        15.63993        11.92502
   H       -7.49913         1.88911        -5.01059
   H       -8.47787         3.55624        -9.60426
   H       -8.91195         1.29347       -10.33513
   H       -9.06077        -1.11898        -9.86188
   H       -8.57901        -1.97320        -7.60229
   H       -7.94510        -0.42013        -5.79794
   H       -7.63450         8.00584        -6.48159
   H       -6.58781        10.01782        -2.19768
   H       -7.47021        10.91968        -4.48612
   H       -5.73849         6.20042        -1.28057
   H       -5.69380         9.06002        -0.16333
   H       -4.84337         9.43208         1.94136
   H       -4.32992        10.53120         3.80384
   H       -3.73327        10.51410         6.75824
   H       -5.21867         9.74462         6.16437
   H       -4.47599        12.49815         5.53699
   H       -5.65046        12.02109         6.57678
   H       -1.68301        10.20614         5.27651
   H       -2.37573        11.76712         4.77985
   H       -1.83449         9.61447         2.88918
   H       -0.90316        10.95133         3.09807
   H       -2.44535         8.71704         7.02716
   H       -0.98261         6.69848         7.38804
   H       -1.98542         4.38721         7.17690
   H       -3.03938         4.18382         4.96635
   H       -4.13500         4.53361         2.60984
   H       -5.10040         5.38555         0.53480
   H       -2.26107         7.50873         9.28245
   H       -3.89583         4.97806         8.70894
   H       -5.57545         5.45111        13.40765
   H       -5.98190         3.66461        11.55238
   H       -4.45928         7.78110        14.48116
   H       -2.71402         9.14308        12.34611
   H       -3.44733         9.83574        15.25177
   H        0.05482        13.24975        11.27114
   H       -0.84314        14.72186        15.94722
   H        0.42891        16.73910        15.55828
   H        1.77634        18.16826        14.07265
   H        2.24144        17.46496        11.75852
   H        1.35995        15.32676        10.91071
*
