# ORCA input file
# SCF done       -241.082819410394          0.000512879453
! CAM-B3LYP def2-SVP def2/J RIJCOSX Grid4 TightSCF
%maxcore 5000
%tddft
    Mode sTDDFT
    Ethresh 5.0
    maxcore 5000
end

%pal
  nprocs 6
  end
* xyz 0 1
   C       -2.80284        -0.18656         1.33137
   C       -2.20943         0.69215         2.19399
   C       -2.55946         0.81196         3.55681
   N       -2.81627         0.95878         4.66490
   C       -1.13906         1.53509         1.83599
   N       -0.24940         2.21814         1.58992
   C       -3.76373        -1.22027         1.67757
   C       -3.82104        -2.17278         0.61560
   C       -4.62765        -3.27324         0.68265
   C       -5.42871        -3.47205         1.82878
   C       -5.38816        -2.51530         2.88596
   C       -4.54424        -1.38655         2.79179
   C       -6.19979        -2.72230         4.02047
   C       -7.00980        -3.82140         4.11017
   C       -7.04744        -4.76304         3.07034
   C       -6.27381        -4.59238         1.95429
   C       -2.93531        -1.74877        -0.47696
   O       -2.67484        -2.31514        -1.50778
   C       -2.45949        -0.38087        -0.07105
   C       -2.00143         0.46012        -1.01170
   C       -1.76069         1.88794        -0.91977
   C       -0.55336         2.41965        -1.38061
   C        0.61597         1.70169        -1.93232
   O        0.76787         0.52844        -2.13174
   N        1.57548         2.69402        -2.20505
   C        1.12559         3.97774        -1.86140
   O        1.73179         5.00162        -1.99698
   C       -0.24675         3.77662        -1.31900
   C       -1.13869         4.70214        -0.81007
   C       -2.35830         4.19514        -0.37818
   C       -2.67556         2.83616        -0.42536
   C       -4.03950         2.52701         0.05371
   O       -4.58781         1.46417         0.09955
   S       -4.83510         4.03723         0.59937
   C       -3.42120         5.06316         0.17392
   O       -3.39196         6.24325         0.32555
   C        2.78930         2.34443        -2.76559
   C        3.76863         3.19654        -3.11516
   C        4.99086         2.77363        -3.73107
   C        5.93955         3.74925        -4.12918
   C        7.15513         3.39985        -4.81629
   N        7.98553         4.36518        -5.26259
   C        7.71318         5.60854        -4.97864
   C        6.53772         5.95535        -4.22358
   N        5.68393         5.03865        -3.85462
   C        6.28844         7.31397        -3.90158
   N        6.12412         8.42230        -3.66600
   C        8.59206         6.62376        -5.43764
   N        9.29197         7.45716        -5.79280
   C        7.48850         2.06560        -5.07789
   C        6.58770         1.08986        -4.64554
   C        5.34422         1.43480        -3.99208
   N        4.64560         0.33439        -3.68658
   S        5.45649        -0.95826        -4.15310
   N        6.74376        -0.23510        -4.76127
   C        8.69543         1.71361        -5.81126
   C        8.63918         0.90801        -6.94850
   C        7.46190         0.33762        -7.63934
   O        6.28877         0.48675        -7.42547
   N        7.97936        -0.43410        -8.69427
   C        9.37729        -0.33767        -8.79017
   O       10.06623        -0.86000        -9.61799
   C        9.78104         0.55223        -7.66794
   C       11.03625         1.02415        -7.32965
   C       11.09931         1.84715        -6.21008
   C        9.97404         2.16445        -5.45062
   C       10.27248         2.93244        -4.22392
   O        9.54286         3.19183        -3.31381
   S       12.01038         3.38372        -4.23007
   C       12.36174         2.44503        -5.72010
   O       13.44745         2.34129        -6.19971
   C        7.12727        -1.14691        -9.51695
   C        7.48121        -2.05207       -10.44703
   C        6.46543        -2.70952       -11.19879
   C        6.67175        -3.71486       -12.08985
   C        5.65887        -4.39685       -12.88273
   C        4.31314        -4.14053       -12.89635
   C        3.38206        -4.83348       -13.70004
   N        2.57005        -5.35379       -14.32252
   C        3.64907        -3.16404       -12.12442
   N        3.03038        -2.39831       -11.53282
   C        6.33136        -5.41658       -13.67815
   C        7.72665        -5.37458       -13.39522
   C        7.99731        -4.32313       -12.40043
   O        9.07260        -4.03296       -11.92510
   C        8.61084        -6.22627       -13.99260
   C        8.13189        -7.17954       -14.91839
   C        6.73731        -7.22882       -15.20763
   C        5.84623        -6.33335       -14.57463
   C        6.26835        -8.18597       -16.13085
   C        7.13362        -9.05375       -16.73916
   C        8.50650        -9.00439       -16.45352
   C        8.99511        -8.08715       -15.56307
   H       -4.65467        -3.98353        -0.13027
   H       -4.54417        -0.66975         3.59806
   H       -6.16581        -1.99624         4.81916
   H       -7.62655        -3.97184         4.98329
   H       -7.69328        -5.62369         3.15785
   H       -6.29954        -5.31361         1.15079
   H       -1.77521         0.01135        -1.97499
   H       -0.91236         5.75453        -0.74659
   H        2.88372         1.27637        -2.91941
   H        3.66965         4.26096        -2.96309
   H       11.92018         0.77432        -7.89480
   H        6.08576        -0.92018        -9.31435
   H        8.51388        -2.30202       -10.63643
   H        5.45374        -2.36638       -11.02295
   H        9.66387        -6.17316       -13.75903
   H        4.79719        -6.39852       -14.81533
   H        5.21064        -8.21976       -16.34726
   H        6.76499        -9.78365       -17.44417
   H        9.17480        -9.69710       -16.94270
   H       10.05098        -8.04462       -15.33935
*
