# ORCA input file
# SCF done       -199.119321264618          0.000869577492
! CAM-B3LYP def2-SVP def2/J RIJCOSX Grid4 TightSCF
%maxcore 5000
%tddft
    Mode sTDDFT
    Ethresh 5.0
    maxcore 5000
end

%pal
  nprocs 6
  end
* xyz 0 1
   C        0.38215        -0.63987        -1.12334
   S        0.39082         1.05282        -0.88702
   C        2.12496         1.06820        -0.75252
   C        2.63994        -0.19931        -0.89023
   C        1.63498        -1.17507        -1.11213
   C        1.91579        -2.62600        -1.36373
   C        3.38610        -2.98410        -1.15785
   N        3.65079        -3.32307         0.27779
   O        4.70767        -2.97831         0.74307
   O        2.80191        -3.95137         0.85118
   C        4.33297        -1.87586        -1.61198
   N        4.18895        -1.67654        -3.08980
   O        4.54756        -0.62031        -3.53642
   O        3.75240        -2.60029        -3.73030
   C        4.09351        -0.55925        -0.87764
   C        2.80646         2.33260        -0.55854
   C        3.99270         2.43381         0.15741
   C        4.63173         3.65811         0.31115
   N        5.88595         3.64033         1.01475
   O        6.14172         2.65689         1.67832
   O        6.63019         4.59483         0.90085
   C        4.10135         4.84188        -0.23224
   C        2.89523         4.72122        -0.93619
   C        2.26701         3.50998        -1.09661
   C        4.71633         6.13946        -0.04657
   C        4.67351         7.10023        -0.99043
   C        5.23687         8.41020        -0.97396
   N        6.14114         8.97482        -0.11190
   C        6.78518         8.38640         1.03848
   C        5.94191         8.54935         2.30186
   C        6.46668        10.30323        -0.49048
   O        7.27360        10.98106         0.10352
   C        5.66340        10.54562        -1.66986
   C        4.94199         9.36032        -1.94628
   C        4.17521         9.57394        -3.14797
   O        3.39370         8.86754        -3.75191
   N        4.52435        10.88131        -3.55751
   C        3.83255        11.47963        -4.67484
   C        2.93200        12.63535        -4.25073
   C        5.40447        11.47112        -2.67407
   C        6.00290        12.76141        -2.72939
   C        6.20786        13.53056        -3.82427
   C        6.85992        14.79414        -3.79379
   C        7.18231        15.64798        -2.76424
   C        6.91986        15.72550        -1.32206
   O        6.33766        14.97224        -0.58174
   N        7.46984        16.94153        -0.92944
   C        7.42105        17.42334         0.42850
   C        8.03252        17.66631        -1.96359
   O        8.52750        18.76202        -1.82221
   C        7.85914        16.83414        -3.16571
   C        8.07901        16.92148        -4.52180
   S        7.40929        15.49720        -5.29998
   C        8.68989        17.88674        -5.38399
   S        8.07171        18.00181        -7.01432
   C        9.25563        19.15981        -7.42617
   C       10.08840        19.44588        -6.38625
   C        9.76912        18.72775        -5.20760
   C       10.57935        18.83838        -3.95985
   C       11.59510        19.96896        -4.01001
   N       10.95495        21.29447        -3.72884
   O       11.72312        22.20176        -3.51431
   O        9.76040        21.37689        -3.77818
   C       12.26125        20.12841        -5.37922
   N       13.04603        18.89718        -5.71779
   O       13.30993        18.14030        -4.81932
   O       13.38063        18.77190        -6.86615
   C       11.23565        20.40694        -6.47478
   H       -0.54739        -1.15381        -1.26463
   H        1.63504        -2.87217        -2.39153
   H        1.30558        -3.24839        -0.70384
   H        3.60330        -3.90714        -1.71133
   H        5.37410        -2.18640        -1.45465
   H        4.68055         0.22903        -1.35404
   H        4.45679        -0.67447         0.14767
   H        4.43863         1.57381         0.62939
   H        2.44193         5.61160        -1.34231
   H        1.34134         3.45779        -1.64987
   H        5.22823         6.29961         0.88730
   H        4.16006         6.89779        -1.92285
   H        7.72518         8.93122         1.16872
   H        7.01403         7.33806         0.83616
   H        5.83453         9.60520         2.53798
   H        6.43137         8.05390         3.13562
   H        4.94823         8.12492         2.17286
   H        3.22386        10.67306        -5.09650
   H        4.54654        11.79865        -5.43900
   H        2.20075        12.28956        -3.52419
   H        2.40368        13.02292        -5.11747
   H        3.50961        13.44072        -3.80361
   H        6.37590        13.10058        -1.77152
   H        5.93718        13.18519        -4.81117
   H        6.66226        16.85212         0.96021
   H        7.17134        18.48379         0.42496
   H        8.38780        17.28690         0.91654
   H        9.28178        19.57023        -8.41588
   H       11.10665        17.89755        -3.77744
   H        9.91067        19.00774        -3.10971
   H       12.36079        19.82740        -3.24019
   H       12.99659        20.94352        -5.34056
   H       11.71661        20.32359        -7.45194
   H       10.86853        21.43272        -6.37724
*
