# ORCA input file
# SCF done       -167.708060359744          0.000493515544
! CAM-B3LYP def2-SVP def2/J RIJCOSX Grid4 TightSCF
%maxcore 5000
%tddft
    Mode sTDDFT
    Ethresh 5.0
    maxcore 5000
end

%pal
  nprocs 6
  end
* xyz 0 1
   C        6.21103         2.42555         1.42410
   C        5.99371         3.48234         2.25407
   S        6.12877         3.01516         3.91019
   C        6.47925         1.35762         3.47825
  Cl        6.70651         0.16220         4.66189
   C        6.49473         1.20964         2.12457
   C        6.71447         0.11558         1.17137
   O        7.05374        -1.01675         1.42281
   C        6.53492         0.74848        -0.17900
   C        6.21553         2.16329         0.00002
   C        5.91609         3.08567        -0.96229
   C        5.60285         4.42126        -0.62645
   N        5.35067         5.51023        -0.36992
   C        5.87357         2.84649        -2.35149
   N        5.81989         2.72188        -3.49103
   C        6.76554         0.12882        -1.35738
   C        7.01416        -1.29157        -1.50491
   C        8.02279        -1.73931        -2.35000
   C        8.33843        -3.08972        -2.41066
   N        9.37114        -3.48812        -3.32571
   O       10.13534        -2.63418        -3.72101
   O        9.41528        -4.65534        -3.66845
   C        7.65606        -4.03866        -1.62931
   C        6.56998        -3.57828        -0.87614
   C        6.24919        -2.24303        -0.81773
   C        8.10904        -5.41075        -1.50054
   C        7.31500        -6.45061        -1.24232
   C        7.83482        -7.79811        -0.97137
   C        8.47104        -8.52900        -1.95326
   C        8.93637        -9.81823        -1.67173
   S        9.72713       -10.59601        -3.01472
   C        9.75381        -9.02469        -3.96273
   C        8.66532        -8.12600        -3.38721
   C        8.75367       -10.35887        -0.40936
   C        8.09970        -9.63550         0.58644
   C        8.00104       -10.38611         1.88430
   C        9.05394       -11.48941         1.85761
   S        9.32181       -11.93610         0.10102
   C        7.63702        -8.34507         0.32555
   C        7.01568        -7.47329         1.29604
   C        6.26277        -7.79052         2.36548
   C        5.60852        -6.80958         3.18896
   C        5.84117        -5.42321         3.14911
   N        5.10955        -4.56099         3.81379
   C        4.14762        -5.03931         4.60803
   N        3.92277        -6.34145         4.81781
   C        4.61854        -7.19612         4.11168
   C        3.33963        -4.13403         5.37856
   C        3.10942        -2.80878         5.22333
   C        2.51309        -2.06956         6.38869
   O        2.04757        -2.56334         7.38542
   C        2.66425        -0.65272         6.04456
   C        2.41392         0.55146         6.63133
   S        2.82279         1.85758         5.54396
   C        3.31563         0.75682         4.30958
   C        3.19015        -0.53522         4.71661
   C        3.39727        -1.86139         4.16012
   C        3.64094        -2.08848         2.83206
   C        3.85379        -1.01672         1.94548
   N        4.05709        -0.16511         1.20058
   C        3.62143        -3.31807         2.14447
   N        3.54150        -4.22748         1.44728
  Cl        1.79309         0.85300         8.17712
   H        5.76746         4.50220         2.01374
   H        6.81255         0.71517        -2.26654
   H        8.59576        -1.04550        -2.94801
   H        5.99369        -4.28004        -0.29301
   H        5.39787        -1.92095        -0.24056
   H        9.17595        -5.57684        -1.57132
   H        6.23931        -6.33368        -1.19911
   H        9.60567        -9.25952        -5.01360
   H       10.74482        -8.59073        -3.82794
   H        7.72158        -8.28358        -3.91963
   H        8.93852        -7.07732        -3.49798
   H        7.00322       -10.83000         1.96065
   H        8.15569        -9.73062         2.74249
   H        8.74966       -12.38340         2.39620
   H       10.01095       -11.14138         2.24870
   H        7.14567        -6.42233         1.07141
   H        6.02736        -8.81829         2.59941
   H        6.63628        -4.98858         2.55701
   H        4.39134        -8.24313         4.27469
   H        2.89191        -4.58634         6.25787
   H        3.65700         1.14540         3.37161
*
