# ORCA input file
# SCF done       -163.770472984091          0.000675725059
! CAM-B3LYP def2-SVP def2/J RIJCOSX Grid4 TightSCF
%maxcore 5000
%tddft
    Mode sTDDFT
    Ethresh 5.0
    maxcore 5000
end

%pal
  nprocs 6
  end
* xyz 0 1
   C        4.66652         3.00192        -0.02631
   C        4.19308         4.25264        -0.27851
   S        3.95401         4.49940        -1.96889
   C        4.50093         2.88375        -2.34939
  Cl        4.55692         2.32377        -3.94646
   C        4.84221         2.21552        -1.21053
   C        5.34695         0.88328        -0.86493
   O        5.61294        -0.02354        -1.61798
   C        5.52643         0.92436         0.62504
   C        5.04679         2.21131         1.12440
   C        4.90216         2.60157         2.42660
   C        4.39843         3.87863         2.75696
   N        3.99314         4.91393         3.03802
   C        5.19031         1.80890         3.55686
   N        5.38764         1.20669         4.51375
   C        6.20789         0.01152         1.35711
   C        6.65134        -1.29468         0.92809
   C        7.87920        -1.77477         1.37980
   C        8.35684        -3.01083         0.97803
   N        9.68106        -3.35745         1.43065
   O       10.08082        -2.81243         2.43723
   O       10.32735        -4.15283         0.77972
   C        7.59314        -3.86258         0.14975
   C        6.33441        -3.37967        -0.24494
   C        5.87805        -2.13528         0.11482
   C        8.02269        -5.18972        -0.20137
   C        7.55537        -5.89788        -1.25457
   C        7.96678        -7.21712        -1.57337
   S        7.27415        -8.03341        -2.94733
   C        8.17667        -9.49766        -2.68091
   C        9.01226        -9.34258        -1.56770
   C        8.87725        -8.06283        -0.95848
   S        9.90934        -7.87119         0.41696
   C       10.53109        -9.49275         0.16514
   C       11.50819       -10.01092         1.02207
   N       12.30648       -10.44679         1.72079
   C        9.97403       -10.13810        -0.90211
   C        7.94113       -10.58679        -3.54820
   C        8.44334       -11.84178        -3.43024
   C        8.10393       -12.86709        -4.34899
   S        8.68144       -14.51870        -4.16601
   C        7.74711       -14.86508        -5.61947
   N        7.14315       -13.80540        -6.08283
   N        7.33544       -12.72263        -5.39764
   C        7.67309       -16.16539        -6.18340
   C        6.85062       -16.45581        -7.21978
   C        6.77005       -17.74606        -7.79946
   C        5.83652       -18.18291        -8.68706
   C        6.10407       -19.40507        -9.50925
   O        6.96938       -20.22429        -9.31783
   C        5.12335       -19.32763       -10.59917
   C        4.83219       -20.02146       -11.73555
   S        3.47469       -19.29702       -12.56515
   C        3.30908       -18.07198       -11.35973
   C        4.24740       -18.21123       -10.38642
   C        4.59733       -17.57214        -9.13107
   C        3.78334       -16.72088        -8.43244
   C        2.58419       -16.23405        -8.99451
   N        1.61661       -15.81889        -9.45002
   C        3.96972       -16.35592        -7.08269
   N        4.03534       -16.09198        -5.96803
  Cl        5.60625       -21.39828       -12.34704
   H        3.97316         5.04751         0.40629
   H        6.49891         0.27922         2.36625
   H        8.50190        -1.16741         2.02115
   H        5.69448        -4.01906        -0.83118
   H        4.89721        -1.81904        -0.19910
   H        8.79150        -5.63358         0.41333
   H        6.84140        -5.46264        -1.93982
   H       10.26670       -11.13202        -1.18412
   H        7.26900       -10.39974        -4.37523
   H        9.09790       -12.12141        -2.62127
   H        8.27212       -16.93660        -5.71964
   H        6.25115       -15.65524        -7.62836
   H        7.56846       -18.44609        -7.57602
   H        2.53852       -17.33368       -11.46087
*
