# ORCA input file
# SCF done       -210.672858032981          0.000995550479
! CAM-B3LYP def2-SVP def2/J RIJCOSX Grid4 TightSCF
%maxcore 5000
%tddft
    Mode sTDDFT
    Ethresh 5.0
    maxcore 5000
end

%pal
  nprocs 6
  end
* xyz 0 1
   C       -0.66314        -0.39436        -1.50080
   C       -1.81459         0.04600        -2.07663
   S       -1.96242        -0.53109        -3.69578
   C       -0.44366        -1.39037        -3.59921
  Cl        0.15911        -2.27289        -4.91094
   C        0.12362        -1.21633        -2.37155
   C        1.33576        -1.65987        -1.68322
   O        2.16358        -2.45349        -2.07004
   C        1.26053        -1.01759        -0.33138
   C        0.02261        -0.25807        -0.23245
   C       -0.41181         0.50569         0.81636
   C       -1.63833         1.20178         0.75745
   N       -2.63641         1.76617         0.72809
   C        0.27916         0.70087         2.02938
   N        0.79944         0.91011         3.03097
   C        2.14152        -1.25337         0.67782
   C        3.41714        -1.85680         0.50927
   S        4.11753        -2.86504         1.73338
   C        5.53385        -3.20449         0.77129
   C        5.47095        -2.47388        -0.41330
   C        4.29961        -1.72122        -0.55191
   O        4.10669        -0.86097        -1.58671
   C        4.99940        -0.81841        -2.59682
   O        4.82673        -0.08591        -3.52504
   C        6.25178        -1.69969        -2.49600
   O        7.07644        -1.72884        -3.36053
   O        6.44252        -2.42897        -1.37003
   C        6.50323        -4.08870         1.32989
   N        7.56931        -4.71891         0.72930
   C        7.87414        -4.85339        -0.67757
   C        6.79216        -5.62903        -1.42152
   C        8.32166        -5.46158         1.66449
   O        9.31127        -6.10399         1.36499
   C        7.65287        -5.25958         2.92396
   C        6.52574        -4.43579         2.67643
   C        5.85178        -4.21329         3.93221
   O        4.83524        -3.60426         4.20366
   N        6.63886        -4.89655         4.87565
   C        6.25768        -4.95519         6.26790
   C        5.60822        -6.28868         6.62614
   C        7.70135        -5.53185         4.28775
   C        8.66994        -6.29683         5.01162
   C        9.65407        -6.94519         4.37678
   C       10.74661        -7.73186         5.01513
   C       10.74345        -7.79417         6.54200
   O        9.79845        -7.90128         7.26519
   O       12.00343        -7.71151         6.99524
   C       12.94284        -7.67246         5.92527
   C       12.13943        -7.14068         4.72839
   C       12.73161        -7.44665         3.36024
   C       13.11028        -8.91178         3.19430
   C       14.00209        -9.44078         4.31118
   C       13.53503        -9.08850         5.73513
   O       14.69871        -9.21998         6.53865
   C       15.82611        -9.16301         5.81345
   O       16.91500        -9.21618         6.28989
   C       15.48028        -9.00331         4.32070
   C       15.77711        -7.59706         3.93265
   C       16.44891        -7.26490         2.81788
   C       16.77086        -5.91039         2.51730
   C       17.51121        -5.38293         1.51057
   C       17.44404        -3.89230         1.33301
   O       16.93525        -3.11138         2.10083
   C       18.07219        -3.64035         0.03682
   C       18.29893        -2.56847        -0.77459
   S       19.12336        -3.07003        -2.23076
   C       19.15656        -4.71795        -1.72118
   C       18.56600        -4.87197        -0.50485
   C       18.32081        -5.94947         0.44060
   C       18.90455        -7.18251         0.33231
   C       19.69449        -7.51876        -0.79090
   N       20.32760        -7.82644        -1.69640
   C       18.88704        -8.23627         1.26749
   N       18.94459        -9.14250         1.96957
  Cl       17.88542        -0.94862        -0.50598
   H       -2.58740         0.66486        -1.66581
   H        1.87198        -1.00543         1.69645
   H        8.81639        -5.40777        -0.71367
   H        8.03006        -3.87428        -1.12885
   H        6.68048        -6.62417        -0.99661
   H        7.07150        -5.72488        -2.46661
   H        5.83249        -5.12099        -1.36652
   H        5.54056        -4.14318         6.41626
   H        7.13493        -4.77296         6.89397
   H        4.73054        -6.45472         6.00613
   H        5.30012        -6.27411         7.66748
   H        6.30214        -7.11316         6.48116
   H        8.57847        -6.34473         6.08565
   H        9.71476        -6.89740         3.29692
   H       10.69379        -8.76391         4.64546
   H       13.74350        -6.99656         6.23856
   H       12.05774        -6.05257         4.83563
   H       13.61419        -6.82349         3.21301
   H       12.00571        -7.17046         2.59364
   H       13.62315        -9.04584         2.24103
   H       12.20531        -9.52221         3.16187
   H       14.01209       -10.53475         4.24225
   H       12.80402        -9.81054         6.11529
   H       16.09912        -9.67436         3.72184
   H       15.49421        -6.82282         4.63454
   H       16.74127        -8.03719         2.12512
   H       16.32780        -5.16252         3.16995
   H       19.60465        -5.45164        -2.36117
*
