# ORCA input file
# SCF done       -199.216389226869          0.000832296252
! CAM-B3LYP def2-SVP def2/J RIJCOSX Grid4 TightSCF
%maxcore 5000
%tddft
    Mode sTDDFT
    Ethresh 5.0
    maxcore 5000
end

%pal
  nprocs 6
  end
* xyz 0 1
   C        0.22556         0.47528        -0.43996
   C       -0.41322         1.34635        -1.27626
   C       -1.06544         0.95415        -2.46353
   N       -1.61116         0.68054        -3.43513
   C       -0.39221         2.74755        -1.10644
   N       -0.32694         3.89238        -1.06137
   C        0.48689        -0.93371        -0.70880
   C        1.56686        -1.36381         0.11863
   C        2.05512        -2.63789         0.05578
   C        1.46896        -3.55692        -0.84273
   C        0.37975        -3.13740        -1.66111
   C       -0.10049        -1.81021        -1.58112
   C       -0.20086        -4.06777        -2.54703
   C        0.27041        -5.34998        -2.62375
   C        1.34302        -5.76182        -1.81835
   C        1.92992        -4.88439        -0.94771
   C        1.98824        -0.25569         0.99143
   O        2.90241        -0.22385         1.78048
   C        0.98462         0.82695         0.74696
   C        0.81966         1.80339         1.66956
   C       -0.30195         2.66318         1.81732
   S       -0.27146         4.06468         2.87433
   C       -1.95407         4.27923         2.42479
   N       -2.37311         3.34989         1.60225
   N       -1.47521         2.47796         1.27027
   C       -2.74198         5.34372         2.93021
   C       -4.02777         5.53516         2.53779
   C       -4.83096         6.58139         3.05249
   N       -6.13379         6.80604         2.68102
   C       -6.91295         6.01841         1.75682
   C       -7.41794         4.72684         2.39557
   C       -6.69619         7.91092         3.35714
   O       -7.83403         8.29193         3.18661
   C       -5.62134         8.38494         4.20222
   C       -4.49786         7.55868         3.99455
   C       -3.43737         8.04581         4.84955
   O       -2.30146         7.65525         5.03492
   N       -3.99436         9.15078         5.51853
   C       -3.18017         9.88875         6.45536
   C       -2.57794        11.14170         5.82396
   C       -5.30179         9.37279         5.14116
   C       -6.23237        10.34546         5.56804
   C       -6.04118        11.40963         6.39720
   C       -7.01945        12.36983         6.77210
   C       -8.35590        12.41921         6.29294
   C       -9.30952        13.31652         6.87176
   N      -10.54304        13.41239         6.34746
   C      -10.89522        12.58444         5.40701
   C       -9.98741        11.63469         4.89564
   N       -8.74927        11.60759         5.29642
   C       -8.95919        14.14425         7.96713
   C       -7.59285        14.22552         8.32335
   C       -6.63593        13.34694         7.73636
   N       -5.34637        13.40357         8.12867
   C       -5.01686        14.26444         9.05259
   C       -5.96701        15.12828         9.63401
   N       -7.22016        15.10577         9.27508
   C       -9.92958        14.92156         8.65434
   C      -11.22666        14.54529         8.84215
   C      -12.32204        15.38593         9.28064
   C      -12.30103        16.75289         9.38642
   C      -13.40479        17.53117         9.79202
   N      -14.26296        18.21934        10.12139
   C      -11.19127        17.57129         9.08905
   N      -10.34415        18.31000         8.85319
   C      -13.48195        14.53126         9.50443
   C      -13.11861        13.18636         9.20885
   C      -11.69889        13.13218         8.81980
   O      -11.03704        12.12930         8.65067
   C      -14.00812        12.15751         9.32377
   C      -15.33017        12.43180         9.74057
   C      -15.70011        13.77378        10.04384
   C      -14.75504        14.81822         9.92084
   C      -17.01914        14.03508        10.46734
   C      -17.93089        13.02148        10.58437
   C      -17.56597        11.70065        10.28391
   C      -16.29360        11.41232         9.87046
   H        2.87736        -2.94209         0.68633
   H       -0.93229        -1.51951        -2.20367
   H       -1.02439        -3.74531        -3.16696
   H       -0.18074        -6.05476        -3.30600
   H        1.70143        -6.77769        -1.89127
   H        2.75606        -5.19557        -0.32527
   H        1.58637         1.88148         2.43191
   H       -2.27820         6.00351         3.65039
   H       -4.44904         4.86122         1.80649
   H       -6.31676         5.80374         0.86594
   H       -7.76398         6.64358         1.47188
   H       -6.58913         4.10153         2.71956
   H       -8.01420         4.17141         1.67710
   H       -8.03800         4.95697         3.25862
   H       -2.37139         9.21021         6.74481
   H       -3.76880        10.12797         7.34339
   H       -1.91662        10.86022         5.00807
   H       -2.00145        11.68576         6.56680
   H       -3.35151        11.79723         5.43142
   H       -7.21808        10.20398         5.14313
   H       -5.07983        11.60833         6.84557
   H      -11.88651        12.70593         4.99233
   H      -10.25420        10.95155         4.10171
   H       -3.97313        14.29842         9.33397
   H       -5.68774        15.85711        10.38216
   H       -9.56763        15.86254         9.04876
   H      -13.70721        11.14539         9.09655
   H      -15.06374        15.82220        10.16558
   H      -17.29547        15.05379        10.69678
   H      -18.93884        13.23190        10.90934
   H      -18.29781        10.91279        10.38236
   H      -16.00654        10.39695         9.63868
*
