# ORCA input file
# SCF done       -170.343717186746          0.000639959296
! CAM-B3LYP def2-SVP def2/J RIJCOSX Grid4 TightSCF
%maxcore 5000
%tddft
    Mode sTDDFT
    Ethresh 5.0
    maxcore 5000
end

%pal
  nprocs 6
  end
* xyz 0 1
   C        1.26836         0.67678         0.16696
   C        0.43004         1.16829        -0.79270
   C        0.85568         1.53922        -2.08526
   N        1.16002         1.85402        -3.14602
   C       -0.97103         1.24374        -0.63811
   N       -2.11730         1.23977        -0.58729
   C        2.66336         0.30021        -0.02721
   C        3.03597        -0.61692         1.00059
   C        4.28117        -1.17684         1.04505
   C        5.22832        -0.83014         0.05618
   C        4.86879         0.10209        -0.96072
   C        3.57025         0.66013        -0.98765
   C        5.82819         0.44736        -1.93439
   C        7.08050        -0.10323        -1.90963
   C        7.43232        -1.02339        -0.91042
   C        6.52619        -1.37912         0.05117
   C        1.90829        -0.79958         1.92862
   O        1.82877        -1.53528         2.88326
   C        0.87773         0.18867         1.47854
   C       -0.09251         0.57855         2.33578
   C       -0.90684         1.74084         2.23671
   S       -2.34887         1.95445         3.21529
   C       -2.48029         3.52749         2.44632
   N       -1.50597         3.75428         1.60817
   N       -0.65506         2.78161         1.49104
   C       -3.54662         4.42371         2.74373
   C       -3.67218         5.60659         2.10516
   C       -4.68801         6.59850         2.31289
   C       -5.68447         6.58521         3.27972
   F       -5.77691         5.57156         4.15559
   C       -6.63178         7.61022         3.41505
   F       -7.53390         7.47085         4.40288
   C       -6.68831         8.73932         2.60700
   C       -5.68609         8.79194         1.59905
   C       -4.70947         7.74282         1.46651
   N       -3.85708         7.97888         0.47275
   S       -4.23725         9.36889        -0.22694
   N       -5.50101         9.74924         0.69126
   C       -7.69356         9.74217         2.83069
   C       -7.84171        10.86013         2.09667
   C       -8.84040        11.87526         2.32356
   C       -9.02854        12.90674         1.39303
   N       -9.93142        13.85317         1.53852
   C      -10.69687        13.79098         2.62242
   N      -10.57420        12.90164         3.60183
   C       -9.66349        11.96330         3.45500
   C      -11.73745        14.82256         2.77891
   C      -12.99411        14.60421         2.36992
   C      -14.16900        15.47120         2.44240
   C      -14.21768        16.72195         2.98743
   C      -15.38118        17.52111         3.04145
   N      -16.29107        18.21613         3.11525
   C      -13.11780        17.38754         3.57265
   N      -12.27147        17.98746         4.06277
   C      -15.27831        14.74876         1.83692
   C      -14.82457        13.46760         1.40332
   C      -13.39478        13.32211         1.70987
   O      -12.67134        12.38218         1.47588
   C      -15.66230        12.57365         0.79906
   C      -17.01526        12.92319         0.59530
   C      -17.47618        14.20302         1.02189
   C      -16.58837        15.10794         1.64466
   C      -18.82853        14.54299         0.81030
   C      -19.68525        13.66245         0.20836
   C      -19.23072        12.40226        -0.20961
   C      -17.92452        12.04053        -0.02054
   H        4.54091        -1.87550         1.82648
   H        3.32477         1.36988        -1.76221
   H        5.55172         1.15339        -2.70351
   H        7.80763         0.16668        -2.66070
   H        8.42489        -1.44830        -0.90646
   H        6.79132        -2.08660         0.82315
   H       -0.20967        -0.01408         3.23599
   H       -4.24242         4.09238         3.49818
   H       -2.94829         5.85722         1.34204
   H       -8.36189         9.53857         3.65585
   H       -7.17838        11.02831         1.25949
   H       -8.42511        12.96517         0.49508
   H       -9.58176        11.26876         4.28058
   H      -11.42472        15.74957         3.23875
   H      -15.29452        11.60939         0.48103
   H      -16.96743        16.06851         1.95581
   H      -19.17367        15.51380         1.13422
   H      -20.71882        13.93161         0.05084
   H      -19.92110        11.71990        -0.68229
   H      -17.56897        11.07212        -0.34046
*
