# ORCA input file
# SCF done       -180.022251915124          0.000798628477
! CAM-B3LYP def2-SVP def2/J RIJCOSX Grid4 TightSCF
%maxcore 5000
%tddft
    Mode sTDDFT
    Ethresh 5.0
    maxcore 5000
end

%pal
  nprocs 6
  end
* xyz 0 2
   C        0.86348        14.09055        -1.83639
   C       -0.50512        14.00869        -1.76329
   C       -1.34940        15.11721        -1.54172
   N       -2.08403        15.98112        -1.36450
   C       -1.26027        12.82483        -1.88920
   N       -1.93612        11.90062        -1.98379
   C        1.64895        15.31351        -1.70215
   C        3.03201        14.97927        -1.79925
   C        4.01467        15.92347        -1.71248
   C        3.65207        17.27625        -1.52693
   C        2.27229        17.62158        -1.43538
   C        1.27767        16.61924        -1.52352
   C        1.92178        18.97483        -1.25861
   C        2.88668        19.94254        -1.17467
   C        4.24425        19.60120        -1.26217
   C        4.61936        18.29584        -1.43444
   C        3.16132        13.53363        -2.00563
   O        4.19626        12.89835        -2.12205
   C        1.79316        12.99940        -2.04954
   C        1.47160        11.68595        -2.28974
   C        2.30729        10.59357        -2.54104
   S        4.05398        10.56638        -2.58356
   C        4.07951         8.83182        -3.00423
   S        5.50245         7.99990        -3.23882
   C        2.78454         8.36166        -3.09214
   C        1.79422         9.30531        -2.83506
   C        0.44431         8.82822        -2.93099
   C        0.34999         7.52903        -3.28325
   S        2.00042         6.80618        -3.50815
   O        2.20793         6.46724        -4.88468
   O        2.23621         5.79988        -2.51748
   C       -0.77643         6.71118        -3.50487
   S       -0.56783         5.07893        -4.11170
   C       -2.32657         4.99645        -4.06511
   N       -2.87065         6.10032        -3.62489
   N       -2.02768         7.03853        -3.32214
   C       -3.10063         3.87662        -4.48699
   C       -2.57425         2.77382        -5.05064
   C       -3.31734         1.64206        -5.55070
   C       -2.65639         0.68893        -6.32694
   C       -3.33455        -0.38336        -6.87931
   N       -2.56646        -1.25519        -7.73655
   O       -1.37346        -1.31511        -7.53395
   O       -3.14936        -1.85626        -8.61347
   C       -4.71171        -0.58231        -6.65527
   C       -5.35314         0.36833        -5.84448
   C       -4.68765         1.44957        -5.31877
   C       -5.43291        -1.72115        -7.16806
   C       -6.77013        -1.74268        -7.36994
   C       -7.42852        -2.89551        -7.87622
   C       -8.77321        -2.98971        -8.06994
   C       -9.49958        -4.12577        -8.61769
   C       -8.98762        -5.35954        -8.91925
   C       -9.74935        -6.42267        -9.45089
   N      -10.30947        -7.32534        -9.88539
   C       -7.65104        -5.76921        -8.72330
   N       -6.59284        -6.19093        -8.58046
   C      -10.89665        -3.73271        -8.75890
   C      -11.05395        -2.41070        -8.25261
   C       -9.75415        -1.90359        -7.78736
   O       -9.53885        -0.82462        -7.27531
   C      -12.26638        -1.78237        -8.23612
   C      -13.39979        -2.45843        -8.73890
   C      -13.24965        -3.77718        -9.25797
   C      -11.98214        -4.40252        -9.26030
   C      -14.38658        -4.44227        -9.76101
   C      -15.61381        -3.83739        -9.74856
   C      -15.76090        -2.54007        -9.23461
   C      -14.67749        -1.86483        -8.74156
   H        5.05439        15.64199        -1.78769
   H        0.24355        16.91564        -1.45077
   H        0.87536        19.23339        -1.19111
   H        2.60776        20.97672        -1.04028
   H        4.99173        20.37703        -1.19323
   H        5.66307        18.02680        -1.50339
   H        0.41935        11.43651        -2.31174
   H       -0.41947         9.44793        -2.74605
   H       -4.16470         4.00340        -4.35186
   H       -1.50065         2.72458        -5.18512
   H       -1.60070         0.78995        -6.53448
   H       -6.39789         0.23107        -5.61520
   H       -5.22962         2.15081        -4.70460
   H       -4.86129        -2.60292        -7.42640
   H       -7.37870        -0.87137        -7.18041
   H       -6.79610        -3.73624        -8.13099
   H      -12.35842        -0.78076        -7.84278
   H      -11.90334        -5.40011        -9.66178
   H      -14.26841        -5.44119       -10.15457
   H      -16.47891        -4.35568       -10.13416
   H      -16.73713        -2.07875        -9.23137
   H      -14.78453        -0.86573        -8.34504
*
