# ORCA input file
# SCF done       -201.505143767223          0.000294631458
! CAM-B3LYP def2-SVP def2/J RIJCOSX Grid4 TightSCF
%maxcore 5000
%tddft
    Mode sTDDFT
    Ethresh 5.0
    maxcore 5000
end

%pal
  nprocs 6
  end
* xyz 0 1
   C        1.64081         1.35636        -3.11626
   C        1.08349         1.16119        -4.35264
   C        1.37084         0.05348        -5.17910
   N        1.55410        -0.82267        -5.89758
   C        0.19344         2.03979        -5.00702
   N       -0.51191         2.70873        -5.61868
   C        2.65166         0.50351        -2.50629
   C        3.12539         1.14142        -1.32546
   C        4.09516         0.58426        -0.54205
   C        4.64187        -0.66542        -0.90882
   C        4.16695        -1.31530        -2.08497
   C        3.16433        -0.71160        -2.87767
   C        4.71660        -2.56412        -2.43969
   C        5.68930        -3.14411        -1.67167
   C        6.15621        -2.50341        -0.51413
   C        5.64401        -1.29037        -0.14090
   C        2.41604         2.41565        -1.13058
   O        2.62108         3.21571        -0.24219
   C        1.40843         2.48465        -2.22290
   C        0.34900         3.33526        -2.35077
   C       -0.02007         4.48967        -1.62107
   S       -1.56542         5.20841        -2.02188
   C       -1.33774         6.49647        -0.89147
   C       -0.10210         6.35415        -0.23513
   C        0.62448         5.23326        -0.64797
   C        0.38296         7.22553         0.75550
   N        0.79957         7.91962         1.56920
   C       -2.34241         7.48285        -0.76879
   C       -2.25174         8.61271        -0.01282
   C       -3.29345         9.56514         0.04679
   N       -3.21732        10.73443         0.76123
   C       -2.12600        11.16350         1.60466
   C       -2.12981        10.44586         2.95148
   C       -4.38337        11.51001         0.62998
   O       -4.53695        12.58800         1.16408
   C       -5.23548        10.73002        -0.24537
   C       -4.54392         9.54812        -0.58376
   C       -5.39836         8.76171        -1.44882
   O       -5.23925         7.68344        -1.98656
   N       -6.56826         9.52487        -1.56814
   C       -7.65668         9.09035        -2.41077
   C       -7.64918         9.80155        -3.76163
   C       -6.49069        10.70821        -0.86694
   C       -7.52596        11.66245        -0.82528
   C       -7.40487        12.86547        -0.18922
   C       -8.41411        13.85178        -0.15412
   C       -8.27971        15.12288         0.37573
   C       -9.49393        15.83909         0.20103
   C      -10.42403        14.90518        -0.46620
   C       -9.76950        13.73583        -0.67980
   C      -11.74978        15.14975        -0.84274
   N      -12.83921        15.30325        -1.17346
   C       -9.76038        17.14829         0.53627
   C      -10.98064        17.86269         0.32910
   C      -10.80329        19.17552         0.70202
   C       -9.45285        19.31331         1.23238
   C       -8.82840        18.10858         1.14387
   C       -7.52474        17.85163         1.58433
   N       -6.45460        17.67385         1.96158
   C      -11.78674        20.19924         0.59884
   C      -11.54087        21.50826         0.32091
   C      -12.50019        22.59839         0.30604
   C      -13.75518        22.57727         0.85482
   C      -14.64353        23.67304         0.83664
   N      -15.40918        24.52812         0.84890
   C      -14.31430        21.47745         1.53976
   N      -14.82087        20.63151         2.12770
   C      -11.85858        23.74645        -0.32124
   C      -10.51193        23.40209        -0.63464
   C      -10.25499        22.00703        -0.24385
   O       -9.23725        21.37402        -0.42341
   C       -9.66042        24.28750        -1.23080
   C      -10.12549        25.58326        -1.54736
   C      -11.47311        25.93376        -1.24358
   C      -12.33163        24.99564        -0.62614
   C      -11.92848        27.22707        -1.57134
   C      -11.09431        28.13210        -2.16930
   C       -9.76756        27.78634        -2.46680
   C       -9.29314        26.53933        -2.16190
   H        4.43948         1.09128         0.34712
   H        2.82236        -1.23202        -3.75796
   H        4.35493        -3.05263        -3.33253
   H        6.10468        -4.10033        -1.95221
   H        6.92366        -2.97593         0.08037
   H        5.99964        -0.79238         0.74919
   H       -0.35950         3.09748        -3.13621
   H        1.58709         4.96834        -0.24828
   H       -3.24250         7.30807        -1.34529
   H       -1.35586         8.81378         0.55366
   H       -2.27064        12.23625         1.75981
   H       -1.17703        11.00507         1.08573
   H       -3.06761        10.63012         3.47008
   H       -1.31398        10.81889         3.56343
   H       -2.00375         9.37307         2.82529
   H       -8.60649         9.24534        -1.89138
   H       -7.51109         8.01708        -2.56162
   H       -7.74384        10.87838        -3.63911
   H       -8.47519         9.44388        -4.36993
   H       -6.71861         9.59442        -4.28420
   H       -8.44384        11.42000        -1.34068
   H       -6.47588        13.10922         0.30962
   H       -7.39382        15.51367         0.83679
   H      -10.18750        12.86472        -1.14906
   H      -11.87021        17.44884        -0.10468
   H       -9.04758        20.20483         1.66949
   H      -12.81334        19.86857         0.70438
   H       -8.64398        24.00191        -1.45799
   H      -13.34805        25.28832        -0.41547
   H      -12.95035        27.48898        -1.33941
   H      -11.45254        29.12011        -2.41659
   H       -9.12347        28.51278        -2.93920
   H       -8.27278        26.26715        -2.38891
*
