# ORCA input file
# SCF done       -154.443307377506          0.000862938753
! CAM-B3LYP def2-SVP def2/J RIJCOSX Grid4 TightSCF
%maxcore 5000
%tddft
    Mode sTDDFT
    Ethresh 5.0
    maxcore 5000
end

%pal
  nprocs 6
  end
* xyz 0 1
   C       -0.92620        -0.49309         2.26417
   C       -0.43552         0.49274         1.45250
   C        0.33321         0.24717         0.29403
   N        0.99004         0.11899        -0.63859
   C       -0.50223         1.87590         1.70847
   N       -0.44311         3.01100         1.87087
   C       -0.68469        -1.91959         2.08216
   C       -0.96092        -2.59860         3.30456
   C       -0.79064        -3.94662         3.43546
   C       -0.34280        -4.69417         2.32418
   C       -0.08160        -4.02589         1.09244
   C       -0.25662        -2.62730         0.98989
   C        0.35227        -4.78675        -0.01281
   C        0.52051        -6.14057         0.09131
   C        0.26426        -6.79694         1.30477
   C       -0.15645        -6.08880         2.39756
   C       -1.44138        -1.63264         4.29953
   O       -1.73723        -1.81740         5.45412
   C       -1.56144        -0.32954         3.55998
   C       -2.23308         0.67512         4.16244
   C       -2.71166         1.90295         3.62255
   S       -2.91173         3.30610         4.66100
   C       -3.50926         4.11506         3.21867
   N       -3.53976         3.33158         2.18036
   N       -3.09912         2.12538         2.40065
   C       -3.83116         5.50113         3.25923
   C       -4.10630         6.23784         2.16133
   C       -4.29125         7.65298         2.16018
   S       -5.25677         8.35411         0.87795
   C       -5.16318         9.90749         1.57035
   C       -4.39917         9.92416         2.70613
   C       -4.14668        11.06798         3.48263
   N       -3.92110        11.96796         4.15707
   C       -3.86263         8.63710         3.04227
   N       -3.02491         8.50527         4.12811
   C       -2.01109         7.59389         4.29454
   C       -1.41023         6.89093         3.23420
   N       -0.55392         5.92562         3.43779
   C       -0.26471         5.59479         4.69560
   N       -0.68361         6.27849         5.76283
   C       -1.50713         7.28004         5.56679
   C        0.43283         4.34467         4.91003
   C        1.26190         3.77739         4.00584
   C        1.65188         2.37759         3.91889
   C        1.19828         1.35687         4.71453
   C        1.45598        -0.00739         4.47341
   N        1.58753        -1.13550         4.29811
   C        0.35802         1.51199         5.83678
   N       -0.33930         1.55541         6.74791
   C        2.45888         2.21479         2.71760
   C        2.60953         3.48316         2.08744
   C        1.93871         4.51964         2.89090
   O        2.03071         5.71437         2.75654
   C        3.27804         3.62561         0.90678
   C        3.82033         2.48315         0.27724
   C        3.68139         1.21122         0.90364
   C        3.00223         1.09714         2.13681
   C        4.21594         0.07549         0.26237
   C        4.85640         0.18913        -0.94083
   C        4.99652         1.44244        -1.55496
   C        4.48974         2.56514        -0.95884
   H       -0.99618        -4.43547         4.37582
   H       -0.06159        -2.14953         0.04232
   H        0.55085        -4.27710        -0.94432
   H        0.85201        -6.71434        -0.76122
   H        0.40123        -7.86607         1.36854
   H       -0.35509        -6.58810         3.33446
   H       -2.47166         0.50588         5.20908
   H       -3.82513         5.94483         4.24336
   H       -4.20482         5.72868         1.21271
   H       -5.66256        10.74036         1.11575
   H       -3.11560         9.22090         4.83905
   H       -1.61539         7.13701         2.20174
   H       -1.80422         7.84134         6.44500
   H        0.16084         3.83531         5.82461
   H        3.37437         4.59859         0.44868
   H        2.92456         0.12040         2.58876
   H        4.10104        -0.88780         0.73744
   H        5.25697        -0.68713        -1.42798
   H        5.50563         1.51379        -2.50458
   H        4.59129         3.53265        -1.42831
*
