# ORCA input file
# SCF done       -217.193190022926          0.000885621533
! CAM-B3LYP def2-SVP def2/J RIJCOSX Grid4 TightSCF
%maxcore 5000
%tddft
    Mode sTDDFT
    Ethresh 5.0
    maxcore 5000
end

%pal
  nprocs 6
  end
* xyz 0 1
   C       -1.55346         2.39945         0.78492
   O       -1.20797         1.74964        -0.16596
   C       -0.72393         2.82233         1.93900
   C       -1.52227         3.47592         2.89607
   C       -0.96275         3.94513         4.07539
   C        0.39512         3.75220         4.27756
   C        1.20044         3.10725         3.33819
   C        0.63171         2.63453         2.15413
   F        1.39836         2.02175         1.26080
   F        2.50294         2.94386         3.57144
   F        0.95303         4.19542         5.40400
   C       -2.89970         3.53516         2.41257
   C       -3.95328         4.10510         3.06419
   C       -3.86895         4.71788         4.33614
   N       -3.86166         5.22483         5.36435
   C       -5.27606         4.16864         2.56663
   N       -6.36930         4.26799         2.23539
   C       -2.93024         2.89366         1.10025
   C       -3.97654         2.69302         0.28288
   C       -3.81405         2.07291        -1.04276
   N       -4.35454         0.87116        -1.20859
   C       -4.15538         0.29640        -2.38576
   C       -3.43595         0.90556        -3.39542
   C       -2.95423         2.19775        -3.14080
   N       -3.16192         2.77235        -1.95298
   C       -2.21797         2.93809        -4.13846
   C       -1.84253         4.21733        -3.95693
   C       -1.09787         4.99470        -4.89537
   C       -0.44101         4.59028        -6.02298
   C        0.20328         5.63955        -6.72047
   C        1.00093         5.54726        -7.87869
   C        1.21949         4.29995        -8.58238
   C        2.37027         3.86485        -9.17472
   C        2.21334         2.62571        -9.83226
   C        0.95287         2.10705        -9.76969
   S       -0.07352         3.16302        -8.85984
   C        0.43595         0.84084       -10.34700
  Cl        3.51536         1.84734       -10.64545
   C        1.56790         6.73284        -8.34082
   C        1.35001         7.98746        -7.71583
   C        0.57463         8.07802        -6.54094
   C        0.01505         6.89162        -6.07835
   S       -0.94286         6.72001        -4.63712
   C        0.39590         9.34310        -5.85837
   C        1.31318        10.34284        -5.68676
   C        0.79105        11.43893        -4.97001
   C       -0.50998        11.29854        -4.58231
   S       -1.12061         9.77435        -5.12022
   C       -1.37497        12.23768        -3.82555
  Cl        1.74668        12.83847        -4.62329
   C        1.95805         9.03878        -8.44179
   C        2.63777         8.61304        -9.54307
   S        2.55592         6.89336        -9.76902
   C        3.38066         9.44298       -10.45946
   N        3.95413         8.85870       -11.51359
   C        4.63134         9.63835       -12.33260
   C        4.74718        11.00777       -12.13473
   C        4.10616        11.53164       -11.00665
   N        3.43704        10.73667       -10.17330
   C        4.11538        12.94717       -10.69209
   C        3.44518        13.41320        -9.62026
   C        3.34821        14.78065        -9.24738
   C        2.43375        15.29975        -8.38698
   C        2.64957        16.64109        -7.77483
   O        3.43178        17.48201        -8.13457
   C        1.72940        16.66967        -6.61012
   C        0.93019        15.51064        -6.60607
   C        1.26565        14.69933        -7.77551
   C        0.50042        13.68627        -8.28584
   C       -0.62307        13.14009        -7.62976
   N       -1.52414        12.63708        -7.12840
   C        0.65269        13.13837        -9.58093
   N        0.66031        12.71132       -10.64543
   C       -0.00994        15.30236        -5.61188
   C       -0.12393        16.25624        -4.61237
   C        0.66005        17.40883        -4.59675
   C        1.59535        17.62081        -5.61262
   F        2.33468        18.72336        -5.59853
   F        0.51556        18.30527        -3.61958
   F       -1.01046        16.06427        -3.63289
   H       -1.53342         4.44880         4.83796
   H       -4.98599         2.96095         0.56130
   H       -4.59111        -0.68739        -2.50327
   H       -3.26144         0.41981        -4.34144
   H       -1.98500         2.40912        -5.05098
   H       -2.13482         4.70816        -3.03875
   H       -0.39358         3.56283        -6.32960
   H        3.30856         4.38405        -9.12154
   H        1.20314         0.38213       -10.96562
   H       -0.44760         1.02891       -10.95533
   H        0.15763         0.14263        -9.55755
   H        2.33729        10.28582        -6.00602
   H       -0.77815        13.03772        -3.39381
   H       -1.89417        11.71311        -3.02564
   H       -2.13005        12.66754        -4.48430
   H        1.87829        10.07909        -8.19277
   H        5.09202         9.14526       -13.17897
   H        5.29728        11.63624       -12.81538
   H        4.62579        13.60920       -11.37700
   H        2.94926        12.67768        -9.00100
   H        4.09729        15.46911        -9.62343
   H       -0.63903        14.42958        -5.57744
*
