# ORCA input file
# SCF done       -249.575500776206          0.000675811105
! CAM-B3LYP def2-SVP def2/J RIJCOSX Grid4 TightSCF
%maxcore 5000
%tddft
    Mode sTDDFT
    Ethresh 5.0
    maxcore 5000
end

%pal
  nprocs 6
  end
* xyz 0 1
   C      -10.91808        -2.98597        -1.78919
   O      -11.43511        -1.97351        -1.37397
   C      -11.31144        -4.36650        -1.41315
   C      -10.47264        -5.29430        -2.05129
   C      -10.65585        -6.65366        -1.85788
   C      -11.68369        -7.06186        -1.02016
   C      -12.52167        -6.15324        -0.37750
   C      -12.33202        -4.78437        -0.57739
   F      -13.13412        -3.91823         0.03356
   F      -13.49986        -6.58799         0.42134
   F      -11.87949        -8.36782        -0.82318
   C       -9.49644        -4.55891        -2.85698
   C       -8.46347        -5.14375        -3.54347
   C       -8.22988        -6.53543        -3.58925
   N       -7.97899        -7.65218        -3.67331
   C       -7.45913        -4.48091        -4.28272
   N       -6.58941        -4.04565        -4.89373
   C       -9.80071        -3.14351        -2.74452
   C       -9.15736        -2.17412        -3.47406
   C       -9.28524        -0.77303        -3.49865
   C      -10.05308         0.10710        -2.76756
   C       -9.85082         1.45412        -3.10314
   C      -10.47649         2.58541        -2.52224
   C      -11.35324         2.44096        -1.38255
   C      -11.20051         1.61238        -0.30439
   C      -12.25628         1.72522         0.62159
   C      -13.22310         2.62456         0.26750
   S      -12.82127         3.36963        -1.23807
   C      -14.47334         2.96205         0.99282
  Cl      -12.31854         0.80846         2.07424
   C      -10.18783         3.81169        -3.10232
   C       -9.27411         3.96988        -4.17665
   C       -8.59117         2.85235        -4.70468
   C       -8.92173         1.61414        -4.16939
   S       -8.27105         0.08344        -4.66483
   C       -7.59484         3.01546        -5.74383
   C       -6.65940         4.00460        -5.85760
   C       -5.86309         3.87022        -7.01496
   C       -6.16996         2.78989        -7.78969
   S       -7.47637         1.90283        -7.07951
   C       -5.54132         2.34206        -9.05768
  Cl       -4.61803         4.99812        -7.40415
   C       -9.18317         5.31635        -4.59113
   C       -9.94493         6.18314        -3.85672
   S      -10.84566         5.34602        -2.61059
   C      -10.04958         7.61442        -3.99716
   C       -9.16069         8.30692        -4.79170
   C       -9.24898         9.70695        -4.91103
   C       -8.49675        10.63594        -5.62597
   C       -7.28483        10.47308        -6.47635
   C       -6.01193        10.70212        -5.62125
   N       -5.81482        12.11785        -5.36819
   C       -7.16645         9.13085        -7.21118
   N       -6.16137         9.25219        -8.25539
   C       -9.03546        11.93769        -5.30346
   C       -8.65119        13.16961        -5.68682
   C       -9.30512        14.39145        -5.13997
   C      -10.47007        14.12708        -4.23806
   C      -10.86201        12.88573        -3.89517
   C      -10.15962        11.75873        -4.38166
   C      -10.28935        10.40042        -4.15988
   C      -11.19039         9.66526        -3.35892
   C      -11.07104         8.31566        -3.28265
   C       -9.73891        15.30385        -6.25707
   C       -9.17664        16.48900        -6.49066
   C       -9.56861        17.43787        -7.50928
   C       -8.76504        18.52669        -7.84053
   C       -7.51989        18.80124        -7.27455
   N       -6.49410        19.00944        -6.80103
   S       -9.44678        19.57322        -9.03799
   C      -10.84721        18.55258        -9.15482
   C      -10.75571        17.46021        -8.27426
   C      -11.81251        16.54414        -8.14547
   N      -12.70369        15.82896        -8.03613
   C      -11.95291        18.73017       -10.01572
   C      -12.25993        19.78963       -10.82275
   C      -13.44030        19.90975       -11.66246
   C      -14.26652        18.89201       -12.06160
   C      -14.06704        17.52625       -11.76567
   N      -13.94505        16.39699       -11.59937
   C      -15.39551        19.07589       -12.88720
   N      -16.32631        19.17052       -13.55204
   C      -13.53626        21.30197       -12.08248
   C      -12.38754        21.99627       -11.62380
   C      -11.53366        21.06816       -10.87000
   O      -10.44872        21.31645       -10.37406
   C      -12.17415        23.32998       -11.87659
   C      -13.14728        24.01655       -12.60998
   C      -14.29584        23.31867       -13.05701
   C      -14.50687        21.96770       -12.80740
   S      -15.37266        24.35883       -13.93590
   C      -14.28170        25.69860       -13.69730
   C      -13.16689        25.38456       -12.99456
  Br      -14.71790        27.38277       -14.39550
   H      -10.04340        -7.40503        -2.32718
   H       -8.41162        -2.53413        -4.17281
   H      -10.76132        -0.22332        -2.03205
   H      -10.35066         0.97482        -0.14784
   H      -15.26404         2.25560         0.73597
   H      -14.80957         3.96239         0.73223
   H      -14.30530         2.90301         2.06651
   H       -6.50295         4.77403        -5.12437
   H       -4.77137         3.04876        -9.35732
   H       -6.28457         2.26842        -9.85061
   H       -5.08857         1.35892        -8.93191
   H       -8.59963         5.62027        -5.43934
   H       -8.37858         7.77462        -5.30385
   H       -7.29742        11.25883        -7.24022
   H       -5.17432        10.24127        -6.16324
   H       -6.13353        10.19220        -4.66251
   H       -5.42365        12.56812        -6.18896
   H       -5.17328        12.26229        -4.59818
   H       -8.15894         8.83486        -7.58872
   H       -6.81123         8.36139        -6.52233
   H       -6.49158         9.85885        -8.99878
   H       -5.95787         8.34645        -8.66220
   H       -7.83810        13.32990        -6.37743
   H       -8.53257        14.92163        -4.55997
   H      -10.98818        15.00028        -3.87214
   H      -11.70478        12.73708        -3.23617
   H      -11.96248        10.18516        -2.81200
   H      -11.75099         7.73758        -2.67427
   H      -10.56071        14.93688        -6.85306
   H       -8.33235        16.81009        -5.89101
   H      -12.65791        17.90639        -9.98501
   H      -11.28699        23.82833       -11.51855
   H      -15.39864        21.48219       -13.16684
   H      -12.39019        26.08798       -12.75614
*
