# ORCA input file
# SCF done       -254.005088613527          0.000984485871
! CAM-B3LYP def2-SVP def2/J RIJCOSX Grid4 TightSCF
%maxcore 5000
%tddft
    Mode sTDDFT
    Ethresh 5.0
    maxcore 5000
end

%pal
  nprocs 6
  end
* xyz 0 1
   C       -6.02353        -0.82454        -1.09843
   O       -6.75018         0.08093        -1.43924
   C       -6.43502        -2.19845        -0.71158
   C       -5.29684        -2.99669        -0.50109
   C       -5.42448        -4.32654        -0.13972
   C       -6.70469        -4.84198         0.00815
   C       -7.84280        -4.06540        -0.19632
   C       -7.70584        -2.72470        -0.56524
   F       -8.79434        -1.98797        -0.76122
   F       -9.05728        -4.59912        -0.04313
   F       -6.85259        -6.12293         0.35393
   C       -4.10566        -2.17588        -0.72551
   C       -2.80928        -2.57830        -0.52690
   C       -2.43215        -3.88078        -0.13983
   N       -2.06586        -4.92335         0.17033
   C       -1.68379        -1.73708        -0.65596
   N       -0.72675        -1.10688        -0.72389
   C       -4.54573        -0.85482        -1.09807
   C       -3.75419         0.15274        -1.60130
   C       -4.12667         1.49270        -1.75926
   S       -3.32230         2.46365        -2.97690
   C       -4.26640         3.87862        -2.61786
   C       -5.12208         3.60915        -1.56192
   C       -5.04682         2.28339        -1.05920
   C       -5.85708         2.11371         0.08456
   C       -6.55511         3.24677         0.38781
   C       -7.49053         3.40286         1.50825
   O       -7.68608         2.56609         2.35253
   O       -8.08832         4.59938         1.47255
   C       -9.02166         4.86240         2.50975
   S       -6.24977         4.58605        -0.68386
   C       -4.09592         5.08387        -3.34103
   C       -3.23647         5.30736        -4.38501
   C       -3.28121         6.62716        -4.88140
   C       -2.55805         7.16948        -5.96582
   C       -1.54687         6.39465        -6.65281
   C       -0.61204         5.56113        -6.10625
   C        0.22306         4.96869        -7.07725
   C       -0.06260         5.33078        -8.36262
   S       -1.38897         6.44189        -8.38741
   C        0.59922         4.90020        -9.61919
  Cl        1.49100         3.88150        -6.65672
   C       -2.86336         8.47768        -6.31953
   C       -3.81583         9.27366        -5.63158
   C       -4.52765         8.73745        -4.53700
   C       -4.23244         7.42212        -4.19163
   S       -5.01423         6.51482        -2.92411
   C       -5.53499         9.48212        -3.80999
   C       -5.81064         9.42725        -2.47275
   C       -6.91197        10.23000        -2.10657
   C       -7.49734        10.89530        -3.14433
   S       -6.66605        10.53479        -4.61894
   C       -8.66699        11.80878        -3.12504
  Cl       -7.45948        10.34509        -0.47894
   C       -3.87744        10.58508        -6.15759
   C       -3.03093        10.79536        -7.21048
   S       -2.10066         9.37041        -7.60351
   C       -2.85315        11.99467        -7.96404
   C       -3.47618        13.20027        -7.77826
   C       -3.06287        14.18604        -8.70034
   C       -2.10681        13.69545        -9.60682
   S       -1.72945        12.02856        -9.30468
   C       -1.55293        14.45038       -10.63602
   O       -0.68558        13.76949       -11.41595
   C       -0.24366        14.25000       -12.66398
   C       -1.95451        15.80127       -10.70611
   C       -2.93520        16.29919        -9.78141
   C       -3.51590        15.52351        -8.79561
   O       -4.46047        15.86063        -7.88516
   C       -5.19048        17.05926        -8.01051
   S       -3.24046        18.00278       -10.06820
   C       -2.10680        18.03876       -11.39932
   C       -1.50300        16.81916       -11.57297
   C       -1.80473        19.21707       -12.12221
   C       -2.54606        20.35521       -12.22920
   C       -1.89487        21.63584       -12.60824
   O       -0.79683        21.78079       -13.08274
   C       -2.87847        22.68107       -12.21959
   C       -4.06722        22.07229       -11.77270
   C       -3.92884        20.62419       -11.91607
   C       -4.96172        19.72709       -12.00855
   C       -6.30516        20.03517       -11.71855
   N       -7.40673        20.22474       -11.45818
   C       -4.79128        18.41643       -12.50504
   N       -4.69624        17.37388       -12.97600
   C       -5.13301        22.83426       -11.32790
   C       -4.99260        24.21472       -11.33476
   C       -3.82839        24.83649       -11.78209
   C       -2.75753        24.05949       -12.23203
   F       -1.65028        24.65909       -12.65533
   F       -3.73527        26.16837       -11.77827
   F       -6.00031        24.97284       -10.89822
   H       -4.58028        -4.97490         0.02673
   H       -2.76387        -0.10307        -1.95795
   H       -5.92639         1.22387         0.68005
   H       -9.38687         5.87151         2.33933
   H       -8.53529         4.78680         3.48442
   H       -9.84244         4.14353         2.46997
   H       -2.61659         4.53110        -4.79491
   H       -0.48392         5.40764        -5.05079
   H        1.41567         4.22032        -9.38959
   H        0.99403         5.76091       -10.15765
   H       -0.11016         4.39350       -10.27272
   H       -5.23462         8.87068        -1.75754
   H       -8.98805        11.96955        -2.09899
   H       -9.49579        11.38329        -3.69065
   H       -8.41351        12.76827        -3.57378
   H       -4.51655        11.35310        -5.76648
   H       -4.20374        13.39305        -7.01304
   H        0.54085        15.00349       -12.54648
   H       -1.06944        14.64688       -13.25939
   H        0.17917        13.38131       -13.16866
   H       -5.96709        17.00122        -7.24897
   H       -5.65837        17.14553        -8.99449
   H       -4.56863        17.93803        -7.81935
   H       -0.76129        16.69150       -12.33745
   H       -0.82161        19.25384       -12.58071
   H       -6.05351        22.40119       -10.97207
*
