# ORCA input file
# SCF done       -220.579161869744          0.000831869973
! CAM-B3LYP def2-SVP def2/J RIJCOSX Grid4 TightSCF
%maxcore 5000
%tddft
    Mode sTDDFT
    Ethresh 5.0
    maxcore 5000
end

%pal
  nprocs 6
  end
* xyz 0 1
   C       -7.88882         0.66989        -1.09232
   O       -8.58784         1.60983        -0.76503
   C       -7.98256        -0.04907        -2.38623
   C       -6.97605        -1.02453        -2.46782
   C       -6.86240        -1.82954        -3.58777
   C       -7.76843        -1.64526        -4.62359
   C       -8.76774        -0.67867        -4.55863
   C       -8.87604         0.12625        -3.42476
   F       -9.84550         1.04280        -3.37289
   F       -9.62050        -0.50802        -5.57818
   F       -7.68947        -2.42194        -5.70327
   C       -6.19544        -0.97557        -1.23098
   C       -5.04309        -1.68919        -1.01279
   C       -4.50494        -2.62338        -1.92296
   N       -4.01813        -3.40867        -2.60432
   C       -4.19506        -1.58262         0.11056
   N       -3.43087        -1.55442         0.96817
   C       -6.81014        -0.00298        -0.34984
   C       -6.45201         0.10232         0.98093
   C       -6.83206         0.96650         2.01939
   C       -7.62451         2.09941         1.92324
   C       -7.93773         2.93498         2.97596
   C       -7.44547         2.69988         4.33689
   C       -6.64955         1.66076         4.67962
   S       -6.11104         0.47675         3.56900
   C       -7.97076         3.76539         5.11133
   C       -8.73284         4.62371         4.30288
   C       -9.28959         5.68509         5.05713
   C       -8.94026         5.61160         6.36587
   S       -7.92786         4.25852         6.75293
   C       -8.71936         4.12334         2.96049
   C       -9.32698         4.64551         1.79840
   C       -9.93011         5.85851         1.68596
   C      -10.51044         6.35156         0.48826
   C      -10.68520         5.70270        -0.71041
   C      -11.28830         6.49547        -1.71240
   C      -11.56599         7.80381        -1.22935
   S      -11.10230         7.99991         0.43283
   C      -12.12703         8.84523        -1.95647
   O      -12.28291         9.99206        -1.24411
   C      -12.79689        11.15994        -1.83180
   C      -12.45104         8.57571        -3.30125
   C      -12.19615         7.25961        -3.76937
   C      -11.63729         6.21576        -3.04890
   O      -11.52272         5.06758        -3.75531
   C      -10.84376         3.94601        -3.23987
   S      -12.62355         7.04618        -5.43600
   C      -13.10795         8.72972        -5.54135
   C      -12.97281         9.38185        -4.34438
   C      -13.47773         9.27387        -6.80717
   C      -13.37487         8.51564        -7.95147
   C      -13.51520         8.99564        -9.24598
   C      -14.08092        10.32194        -9.48884
   C      -14.32458        11.22124        -8.50712
   S      -13.96766        10.94831        -6.85075
   C      -14.23962        10.41256       -10.90177
   C      -13.74169         9.25958       -11.50746
   C      -13.83131         9.31623       -12.91389
   C      -14.39006        10.48394       -13.33096
   S      -14.81410        11.55962       -12.04494
   C      -13.23291         8.37032       -10.48769
   C      -12.44219         7.24090       -10.73946
   C      -11.65179         6.61499        -9.80252
   C      -10.78305         5.56259       -10.06314
   C       -9.93367         4.94711        -9.16086
   C       -9.30382         3.67841        -9.58377
   O       -9.31462         3.19667       -10.69253
   C       -8.68113         3.11835        -8.35578
   C       -8.87603         4.01789        -7.29413
   C       -9.57509         5.21310        -7.79636
   C       -9.67946         6.37140        -7.05399
   C       -9.29726         6.49158        -5.70138
   N       -9.03744         6.69124        -4.59933
   C      -10.08815         7.65152        -7.47513
   N      -10.35861         8.75046        -7.68544
   C       -8.40141         3.71623        -6.02960
   C       -7.72595         2.51860        -5.85340
   C       -7.51630         1.62328        -6.89543
   C       -8.00622         1.92613        -8.16819
   F       -7.80323         1.07227        -9.16513
   F       -6.84598         0.48529        -6.67333
   F       -7.24976         2.21185        -4.63498
   H       -6.10789        -2.59097        -3.69239
   H       -5.74344        -0.65002         1.30993
   H       -8.01512         2.32312         0.94161
   H       -6.29300         1.51049         5.68672
   H       -9.92308         6.46172         4.67082
   H       -9.21848         6.28038         7.15684
   H       -9.27033         4.01644         0.92187
   H       -9.95476         6.53029         2.53005
   H      -10.38302         4.68270        -0.84204
   H      -12.80357        11.90055        -1.03256
   H      -13.81955        11.01294        -2.19195
   H      -12.15658        11.51632        -2.64391
   H      -10.82746         3.22532        -4.05525
   H      -11.37615         3.50464        -2.39416
   H       -9.81981         4.19426        -2.95208
   H      -13.22298        10.42236        -4.25726
   H      -13.16280         7.46914        -7.79702
   H      -14.72064        12.20463        -8.70484
   H      -13.50957         8.54125       -13.58532
   H      -14.58582        10.79437       -14.33867
   H      -12.37915         6.91024       -11.76914
   H      -11.66242         6.98829        -8.79739
   H      -10.78737         5.11520       -11.05168
   H       -8.53032         4.36504        -5.18128
*
