# ORCA input file
# SCF done       -102.830879408117          0.000752475444
! CAM-B3LYP def2-SVP def2/J RIJCOSX Grid4 TightSCF
%maxcore 5000
%tddft
    Mode sTDDFT
    Ethresh 5.0
    maxcore 5000
end

%pal
  nprocs 6
  end
* xyz 0 1
   C       -1.44138        -1.62929         1.02871
   C       -1.16991        -0.71426         0.06214
   C        0.07078        -0.09000         0.29208
   C        0.72428        -0.54235         1.43561
   S       -0.20792        -1.75688         2.23846
   C        1.96117         0.07252         1.67041
   C        2.25839         0.99976         0.70183
   S        0.99779         1.12200        -0.51690
   C        3.42189         1.81203         0.60050
   C        3.73158         2.71776        -0.38634
   C        4.96923         3.32713        -0.15895
   C        5.61510         2.89622         1.00120
   S        4.67204         1.70941         1.83116
   C        6.85355         3.50347         1.22759
   C        7.16606         4.40561         0.23724
   S        5.91407         4.50936        -0.99266
   C        8.33311         5.20821         0.12891
   C        8.64609         6.10758        -0.86416
   C        9.88055         6.72112        -0.63551
   C       10.52323         6.29856         0.53005
   S        9.58081         5.11373         1.36326
   C       11.75510         6.91624         0.76157
   C       12.06518         7.82012        -0.22829
   S       10.82093         7.90903        -1.46656
   C       13.22414         8.63552        -0.32785
   C       13.53784         9.53508        -1.32019
   C       14.76597        10.15884        -1.08265
   C       15.40096         9.74578         0.09003
   S       14.46048         8.55721         0.91955
   C       16.63076        10.36773         0.32596
   C       16.94681        11.26256        -0.66890
   S       15.71005        11.34346        -1.91459
   C       18.11379        12.06939        -0.77421
   C       18.44683        12.94025        -1.78268
   C       19.68379        13.55491        -1.54773
   C       20.30011        13.16101        -0.36281
   S       19.33753        12.00513         0.48593
   C       21.54328        13.78123        -0.13545
   C       21.85426        14.63406        -1.14611
   S       20.65527        14.70770        -2.39362
   H       -2.30755        -2.25462         1.11507
   H       -1.81667        -0.49658        -0.76697
   H        2.60920        -0.14454         2.49989
   H        3.09076         2.91997        -1.22474
   H        7.49484         3.30199         2.06626
   H        8.00715         6.30324        -1.70565
   H       12.39338         6.72170         1.60383
   H       12.90485         9.72290        -2.16813
   H       17.26348        10.17916         1.17390
   H       17.82529        13.11579        -2.64147
   H       22.16464        13.60356         0.72261
   H       22.73235        15.24058        -1.24539
*
