# ORCA input file
# SCF done       -239.472348072918          0.000597676391
! CAM-B3LYP def2-SVP def2/J RIJCOSX Grid4 TightSCF
%maxcore 5000
%tddft
    Mode sTDDFT
    Ethresh 5.0
    maxcore 5000
end

%pal
  nprocs 6
  end
* xyz 0 1
   C       -7.84633        -2.04133        -5.47323
   C       -7.99294        -3.06247        -6.40097
   C       -8.16481        -4.37895        -5.99795
   C       -8.20500        -4.71260        -4.65217
   C       -8.06008        -3.70144        -3.71816
   C       -7.87329        -2.36073        -4.12515
   C       -7.72637        -1.52357        -2.93974
   C       -7.64406        -0.15507        -2.92614
   C       -7.69652         0.65185        -4.08204
   N       -7.73305         1.36734        -4.97889
   C       -7.54021         0.64169        -1.76768
   N       -7.45816         1.34707        -0.86452
   C       -7.67490        -2.42321        -1.79751
   C       -8.10021        -3.73397        -2.26473
   C       -8.72157        -4.69177        -1.50666
   C       -9.03954        -4.51432        -0.14413
   N       -9.35787        -4.37402         0.94992
   C       -9.20491        -5.91093        -2.02205
   N       -9.60201        -6.92415        -2.38661
   C       -7.20652        -2.07780        -0.55447
   C       -6.69554        -2.90634         0.45397
   S       -6.10066        -4.53536         0.21239
   C       -5.59107        -4.70429         1.86460
   C       -5.86966        -3.54062         2.56264
   C       -6.46172        -2.51689         1.77958
   C       -6.69516        -1.34158         2.52702
   C       -6.28530        -1.47587         3.82152
   C       -6.33192        -0.49482         4.91309
   O       -5.93647        -0.71981         6.03002
   O       -6.85543         0.66804         4.51428
   C       -6.93341         1.68230         5.50687
   S       -5.60836        -3.03873         4.19969
   C       -4.97778        -5.88652         2.34421
   C       -4.69698        -6.18247         3.65242
   C       -4.05557        -7.42652         3.82373
   C       -3.67315        -8.03355         5.04000
   C       -3.83011        -7.33760         6.29824
   C       -3.60456        -6.01489         6.56092
   C       -3.88148        -5.66939         7.90021
   C       -4.32006        -6.70974         8.66991
   S       -4.38508        -8.16098         7.73055
   C       -4.71379        -6.70526        10.10022
  Cl       -3.68747        -4.06340         8.48919
   C       -3.14052        -9.31274         4.94689
   C       -2.93821        -9.98833         3.71543
   C       -3.31335        -9.37765         2.49815
   C       -3.86242        -8.10305         2.59219
   S       -4.46258        -7.15702         1.25617
   C       -3.16422       -10.03103         1.21496
   C       -2.83968        -9.45716         0.01779
   C       -2.84405       -10.37877        -1.05052
   C       -3.17947       -11.65385        -0.69688
   S       -3.49155       -11.73129         1.00286
   C       -3.29524       -12.85876        -1.55535
  Cl       -2.45475        -9.91625        -2.66226
   C       -2.30491       -11.23688         3.90441
   C       -2.04857       -11.52958         5.21585
   S       -2.57759       -10.25854         6.29548
   C       -1.42249       -12.69229         5.73925
   C       -1.20989       -12.99906         7.07032
   C       -0.55017       -14.21742         7.22419
   C       -0.25744       -14.84036         5.99728
   S       -0.80414       -13.92940         4.65956
   C        0.41819       -16.05812         6.25431
   C        0.55088       -16.20375         7.65192
   C       -0.06450       -15.06044         8.30430
   C       -0.18649       -14.85434         9.64690
   C       -0.81488       -13.70922        10.18024
   N       -1.31946       -12.77673        10.61586
   C        0.31374       -15.78890        10.57841
   N        0.73006       -16.55961        11.31840
   C        1.19050       -17.37888         8.01516
   C        1.54714       -18.14573         6.91282
   S        1.10229       -17.35920         5.40090
   C        2.24348       -19.37219         6.86226
   C        2.38999       -20.28929         7.86599
   C        3.44906       -21.29388         7.90911
   C        4.22918       -21.72495         6.87004
   C        4.12156       -21.29650         5.53004
   N        4.08866       -20.99798         4.42164
   C        5.23686       -22.70602         6.99295
   N        6.06988       -23.49491         7.01900
   C        3.52916       -21.75938         9.28737
   C        2.46082       -21.19764        10.02261
   C        2.32012       -21.45262        11.37649
   C        3.24748       -22.27999        11.99179
   C        4.28893       -22.84560        11.26946
   C        4.44272       -22.59226         9.91448
   C        1.64473       -20.40621         9.11587
   C        0.32737       -20.09244         9.31497
   C       -0.37386       -20.36249        10.51005
   N       -1.00017       -20.56137        11.45027
   C       -0.52250       -19.55533         8.32684
   N       -1.26877       -19.15175         7.55338
   H       -7.71036        -1.02570        -5.80651
   H       -7.96906        -2.82526        -7.45356
   H       -8.26848        -5.15605        -6.73964
   H       -8.33286        -5.73875        -4.34733
   H       -7.14231        -1.02270        -0.32228
   H       -7.13381        -0.43988         2.14126
   H       -7.34010         2.55897         5.01030
   H       -5.94141         1.89287         5.91171
   H       -7.58541         1.36402         6.32281
   H       -4.98709        -5.54528         4.46569
   H       -3.21077        -5.31500         5.84756
   H       -4.50912        -5.72901        10.53208
   H       -4.16185        -7.46441        10.65233
   H       -5.77686        -6.92121        10.20602
   H       -2.56611        -8.42593        -0.10494
   H       -4.33961       -13.15183        -1.66557
   H       -2.75651       -13.69702        -1.11673
   H       -2.88732       -12.64683        -2.54058
   H       -2.03141       -11.90089         3.10510
   H       -1.52683       -12.35541         7.87122
   H        1.43162       -17.65517         9.02560
   H        2.76618       -19.55816         5.93358
   H        1.52158       -21.00832        11.94811
   H        3.15687       -22.48332        13.04770
   H        4.99692       -23.48929        11.76863
   H        5.26319       -23.03344         9.37306
*
