# ORCA input file
# SCF done       -187.181219431581          0.000384597846
! CAM-B3LYP def2-SVP def2/J RIJCOSX Grid4 TightSCF
%maxcore 5000
%tddft
    Mode sTDDFT
    Ethresh 5.0
    maxcore 5000
end

%pal
  nprocs 6
  end
* xyz 0 1
   C       -3.00706        -2.18326        -1.16058
   C       -2.35528        -1.82756        -0.03563
   C       -1.11440        -1.17395        -0.29386
   C       -0.19244        -0.65516         0.63234
   C       -0.41271        -0.68338         2.06555
   C        0.50504        -0.93133         3.04512
   C       -0.03788        -0.81951         4.34369
   C       -1.35749        -0.47596         4.37760
   S       -1.96078        -0.29274         2.76526
   C       -2.23505        -0.26174         5.55578
  Cl        0.90377        -1.09793         5.75811
   C        0.96014        -0.08036         0.10473
   C        1.21692         0.02194        -1.28446
   C        0.28515        -0.48139        -2.21240
   C       -0.85408        -1.08292        -1.68189
   S       -2.16191        -1.76697        -2.60910
   C        0.46559        -0.36537        -3.64544
   C        0.15124        -1.28221        -4.60691
   C        0.40096        -0.81277        -5.91485
   C        0.89091         0.45875        -5.97651
   S        1.06616         1.09999        -4.37777
   C        1.25702         1.26121        -7.17077
  Cl        0.10293        -1.77965        -7.30815
   C        2.45776         0.65468        -1.54498
   C        3.11464         1.05872        -0.41908
   S        2.23563         0.65044         1.03759
   C        4.36776         1.73791        -0.34148
   C        5.19192         2.10838        -1.37860
   C        6.36100         2.77120        -0.97320
   C        7.35252         3.30973        -1.94830
   C        6.42456         2.91070         0.39969
   S        5.02508         2.23270         1.18054
   C        7.45396         3.54316         1.19581
   C        7.14448         4.39877         2.26165
   F        5.86159         4.65284         2.55025
   C        8.11945         5.03180         3.01053
   F        7.71639         5.86564         3.97937
   C        9.48924         4.85755         2.75733
   C        9.79575         3.98593         1.70181
   C        8.81982         3.34341         0.96112
   F        9.21273         2.47467         0.02075
   F       11.07871         3.73496         1.39885
   C       10.51294         5.52525         3.52602
   C       10.40776         6.09696         4.77698
   C       11.58405         6.70197         5.22818
   C       11.72392         7.35139         6.55881
   C       12.62768         6.57340         4.31663
   S       12.11501         5.70946         2.89516
   C       13.92070         7.13399         4.42205
   C       15.05466         6.78333         3.75462
   C       16.16028         7.76640         3.61314
   O       16.29810         8.79587         4.22423
   C       17.00497         7.22112         2.51872
   C       16.53134         5.94999         2.14188
   C       15.41006         5.59440         3.01130
   C       14.98652         4.32016         3.27624
   C       15.45495         3.17595         2.59787
   N       15.80551         2.22093         2.06789
   C       14.11180         4.01298         4.34095
   N       13.45010         3.73334         5.23556
   C       17.12867         5.24345         1.11316
   C       18.20930         5.82638         0.46713
   C       18.70083         7.07859         0.83283
   C       18.09106         7.78546         1.87210
   F       18.56170         8.98032         2.21191
   F       19.74687         7.60213         0.18945
   F       18.79615         5.17397        -0.53774
   H       -3.95069        -2.68564        -1.24449
   H       -2.73112        -2.02349         0.95098
   H        1.52326        -1.21888         2.86071
   H       -1.70264        -0.53810         6.46248
   H       -3.14015        -0.86215         5.47600
   H       -2.53186         0.78469         5.62799
   H       -0.21290        -2.27129        -4.40150
   H        1.03515         0.69564        -8.07219
   H        2.31898         1.50581        -7.15994
   H        0.69811         2.19610        -7.19136
   H        2.85124         0.80217        -2.53239
   H        4.96057         1.91383        -2.40973
   H        6.84591         3.59469        -2.86725
   H        8.09570         2.55075        -2.19065
   H        7.87127         4.17704        -1.54655
   H        9.50886         6.07429         5.36398
   H       10.74847         7.48320         7.01810
   H       12.21000         8.32159         6.46992
   H       12.33564         6.73069         7.21296
   H       14.00750         8.01882         5.04606
   H       16.78289         4.27501         0.79074
*
