# ORCA input file
# SCF done       -153.650380967809          0.000404785351
! CAM-B3LYP def2-SVP def2/J RIJCOSX Grid4 TightSCF
%maxcore 5000
%tddft
    Mode sTDDFT
    Ethresh 5.0
    maxcore 5000
end

%pal
  nprocs 6
  end
* xyz 0 1
   C        0.02505        -1.30989        -1.73231
   C        0.50642        -0.65703        -0.61766
   C        0.25749         0.72078        -0.37023
   N        0.78940         1.18692         0.79498
   C        1.42719         0.28132         1.41904
   S        1.46720        -1.30530         0.67912
   C       -0.49718         1.48164        -1.26663
   C       -0.98246         0.81963        -2.38305
   C       -0.72935        -0.55928        -2.62445
   N       -1.27014        -1.02989        -3.78574
   C       -1.88647        -0.11944        -4.42483
   S       -1.90656         1.47475        -3.70299
   C       -0.71714         2.90870        -1.01994
   C       -1.97410         3.48247        -0.92327
   C       -2.16702         4.86634        -0.67335
   N       -3.47643         5.23659        -0.57393
   C       -4.26374         4.24890        -0.72725
   S       -3.52242         2.69394        -1.01630
   C       -1.07951         5.73018        -0.50717
   C        0.17942         5.15226        -0.59336
   C        0.37123         3.76970        -0.85513
   N        1.67698         3.39536        -0.96705
   C        2.46362         4.38268        -0.80201
   S        1.72506         5.93391        -0.48465
   C       -1.28747         7.15415        -0.24818
   C       -2.13586         7.93958        -1.01501
   C       -2.33419         9.32262        -0.76587
   N       -3.19793         9.92697        -1.63163
   C       -3.63050         9.11359        -2.51173
   S       -3.06062         7.46858        -2.40780
   C       -1.69077         9.96826         0.29577
   C       -0.85288         9.17974         1.07108
   C       -0.63718         7.80128         0.80783
   N        0.22740         7.19650         1.67191
   C        0.68541         8.01671         2.53254
   S        0.11521         9.66193         2.42990
   C       -1.91866        11.38890         0.55838
   C       -1.83458        12.36203        -0.42795
   C       -2.06524        13.73912        -0.16829
   N       -1.93754        14.54553        -1.25954
   C       -1.59705        13.88488        -2.29321
   S       -1.40297        12.16007        -2.09694
   C       -2.40598        14.18407         1.11176
   C       -2.49401        13.21355         2.09578
   C       -2.25397        11.83809         1.83986
   N       -2.39133        11.03657         2.93534
   C       -2.68586        11.70223         3.97899
   S       -2.85479        13.42968         3.78447
   C       -2.62830        15.61021         1.36369
   C       -3.81553        16.11623         1.86817
   C       -4.02632        17.50758         2.07682
   N       -5.26426        17.81712         2.56061
   C       -5.98584        16.78114         2.71381
   S       -5.26108        15.24584         2.28999
   C       -3.03108        18.42920         1.77942
   C       -1.84702        17.93057         1.27966
   C       -1.62920        16.54132         1.06966
   N       -0.38852        16.23271         0.59639
   C        0.32081        17.27269         0.41731
   S       -0.41854        18.80840         0.81757
   H        0.21852        -2.35176        -1.92306
   H        1.92262         0.44152         2.35661
   H       -2.38091        -0.28202        -5.36266
   H       -5.33230         4.33105        -0.68708
   H        3.53211         4.30043        -0.84943
   H       -4.31584         9.39573        -3.28718
   H        1.38380         7.73791         3.29748
   H       -1.44028        14.33293        -3.25516
   H       -2.83170        11.25749         4.94393
   H       -6.99273        16.80755         3.08251
   H       -3.19787        19.48153         1.93465
   H        1.32756        17.24911         0.04840
*
