# ORCA input file
# SCF done       -194.586195554449          0.019296820912
! CAM-B3LYP def2-SVP def2/J RIJCOSX Grid4 TightSCF
%maxcore 5000
%tddft
    Mode sTDDFT
    Ethresh 5.0
    maxcore 5000
end

%pal
  nprocs 6
  end
* xyz 0 1
   C        2.38580        -6.30786         3.18630
   O        2.12886        -5.12244         3.04903
   C        2.90435        -6.91098         4.43172
   C        3.29939        -8.23475         4.18100
   C        3.79452        -9.00974         5.21841
   C        3.89470        -8.44611         6.48313
   C        3.51495        -7.12986         6.70205
   C        3.01096        -6.33548         5.68080
  Br        3.71389        -6.38903         8.43559
   C        3.06743        -8.52283         2.76680
   C        3.53134        -9.63890         2.11690
   C        4.26364       -10.66746         2.74642
   N        4.87017       -11.53981         3.18420
   C        3.42149        -9.90767         0.73635
   N        3.40066       -10.20947        -0.37248
   C        2.34676        -7.39721         2.19617
   C        1.71620        -7.47888         0.97011
   C        0.83422        -6.61900         0.29599
   C        0.38780        -5.38385         0.72973
   C       -0.55306        -4.61006         0.08094
   C       -1.04721        -4.93368        -1.26276
   C       -0.75113        -6.08996        -1.89982
   S        0.23628        -7.31821        -1.22754
   C       -1.80928        -3.80170        -1.65632
   C       -1.80727        -2.84292        -0.63076
   C       -2.56778        -1.70048        -0.97082
   C       -3.10799        -1.81053        -2.21045
   S       -2.72497        -3.29925        -3.01761
   C       -1.06031        -3.34743         0.47606
   C       -0.78697        -2.73837         1.72464
   C       -0.58531        -3.47696         2.84978
   C        0.01384        -3.06447         4.06339
   S       -0.24812        -4.03673         5.47620
   C        0.82334        -3.05454         6.43820
   C        1.33643        -2.00555         5.67417
   C        0.91394        -2.03700         4.33541
   C        1.51522        -1.16318         3.26451
   N        1.78159        -1.95371         2.07238
   C        2.76939        -0.46678         3.81478
   C        2.45281         0.17166         5.15594
   C        2.22123        -0.91332         6.21841
   N        1.64209        -0.38287         7.44684
   C        1.05740        -3.51359         7.76093
   C        1.98420        -3.04979         8.63533
   C        2.24904        -3.58229         9.92910
   C        1.51879        -4.55751        10.57441
   C        1.82606        -5.07142        11.82807
   C        3.06825        -4.71458        12.51586
   C        3.91949        -3.75303        12.08891
   S        3.66272        -2.84774        10.66434
   C        3.13664        -5.56305        13.65507
   C        2.01310        -6.38674        13.69600
   C        2.02339        -7.24512        14.81649
   C        3.13379        -7.05705        15.57779
   S        4.20244        -5.83714        14.97408
   C        1.15498        -6.06615        12.58244
   C       -0.09926        -6.65176        12.36860
   C       -1.13961        -6.13654        11.63407
   C       -2.37704        -6.77695        11.48248
   C       -2.66193        -8.11558        11.63908
   C       -4.03233        -8.54443        11.98178
   O       -5.04514        -7.87906        11.95588
   C       -3.89273        -9.95532        12.42278
   C       -2.56510       -10.37362        12.22985
   C       -1.81882        -9.27886        11.60658
   C       -0.64637        -9.42537        10.90032
   C        0.08671       -10.62271        10.84122
   N        0.71795       -11.57563        10.79669
   C       -0.09093        -8.41445        10.09512
   N        0.37234        -7.64584         9.37948
   C       -2.18237       -11.64587        12.61895
   C       -3.13100       -12.48269        13.19053
   C       -4.43894       -12.05424        13.35789
   C       -4.84505       -10.78275        12.97757
  Br       -5.70544       -13.24092        14.13784
   H        4.09481       -10.03391         5.06963
   H        4.27275        -9.03738         7.30310
   H        2.70854        -5.31373         5.85284
   H        1.86245        -8.41817         0.44877
   H        0.83477        -4.98736         1.62911
   H       -1.12905        -6.32909        -2.88191
   H       -2.70651        -0.84608        -0.33394
   H       -3.72583        -1.10097        -2.72487
   H       -0.73276        -1.66236         1.75359
   H       -0.91510        -4.50856         2.84158
   H        0.79091        -0.38270         2.98178
   H        2.23322        -2.82694         2.31975
   H        2.38717        -1.44231         1.44234
   H        3.10675         0.28643         3.09892
   H        3.56783        -1.20390         3.93680
   H        1.55115         0.78430         5.06098
   H        3.26960         0.82125         5.47888
   H        3.19646        -1.34805         6.48157
   H        0.70604        -0.03699         7.27014
   H        2.20124         0.39055         7.78929
   H        0.45951        -4.37225         8.03682
   H        2.59914        -2.21243         8.35574
   H        0.67832        -4.98034        10.04651
   H        4.81427        -3.48837        12.62982
   H        1.26041        -7.96434        15.05373
   H        3.40435        -7.56797        16.48101
   H       -0.28766        -7.55916        12.93134
   H       -1.06742        -5.12041        11.26617
   H       -3.24032        -6.14866        11.29295
   H       -1.16883       -11.99372        12.49863
   H       -2.84929       -13.47634        13.50671
   H       -5.86029       -10.44803        13.10766
*
