# ORCA input file
# SCF done       -263.021629336555          0.000754213542
! CAM-B3LYP def2-SVP def2/J RIJCOSX Grid4 TightSCF
%maxcore 5000
%tddft
    Mode sTDDFT
    Ethresh 5.0
    maxcore 5000
end

%pal
  nprocs 6
  end
* xyz 0 1
   C        0.60383         6.85826        -8.31218
   C        0.43185         6.28437        -7.06351
   C       -0.83159         5.92921        -6.63037
   C       -1.94632         6.15743        -7.43514
   C       -1.76131         6.72604        -8.69413
   C       -0.49595         7.07262        -9.12695
   C       -3.28459         5.75133        -6.97784
   C       -3.35875         4.42020        -6.35364
   C       -2.68743         3.33967        -6.92291
   C       -2.74547         2.08930        -6.33683
   C       -3.46161         1.90125        -5.16640
   C       -4.11464         2.97369        -4.58109
   C       -4.06393         4.22347        -5.16753
   C       -4.37400         6.54133        -7.11933
   C       -4.28350         7.94843        -7.54228
   C       -5.18189         8.45544        -8.47950
   C       -5.11332         9.77822        -8.87423
   C       -4.15651        10.61842        -8.32965
   C       -3.27131        10.12867        -7.38315
   C       -3.33307         8.80545        -6.99064
   C       -5.73363         6.04556        -6.86592
   C       -6.65272         6.81802        -6.15502
   C       -7.93239         6.36336        -5.92154
   C       -8.34766         5.12086        -6.41108
   C       -7.43233         4.36224        -7.14794
   C       -6.15197         4.81289        -7.36968
   C       -9.68403         4.62464        -6.18251
   C      -10.67488         5.13405        -5.38200
   C      -11.85267         4.37524        -5.41329
  Cl      -13.24182         4.79586        -4.49627
   C      -11.79981         3.26818        -6.23984
   S      -10.22927         3.18077        -6.98459
   C      -12.80853         2.30517        -6.50679
   C      -12.75512         1.21310        -7.35624
  Cl      -11.37237         0.80108        -8.28402
   C      -13.93138         0.45856        -7.40565
   C      -14.91840         0.95389        -6.58864
   S      -14.37695         2.37799        -5.74797
   C      -16.22720         0.43516        -6.40539
   C      -17.21836         0.88014        -5.56508
   C      -18.38831         0.11692        -5.65531
  Cl      -19.77915         0.45840        -4.71037
   C      -18.32720        -0.92466        -6.56510
   S      -16.75709        -0.94645        -7.32102
   C      -19.32630        -1.87462        -6.90575
   C      -19.26225        -2.89053        -7.84174
  Cl      -17.87643        -3.20305        -8.80506
   C      -20.43004        -3.65605        -7.94839
   C      -21.42075        -3.25146        -7.09049
   S      -20.88965        -1.89594        -6.13863
   C      -22.74406        -3.80458        -6.92612
   C      -23.26413        -4.70879        -7.85788
   C      -24.52387        -5.23859        -7.69291
   C      -25.30478        -4.90541        -6.58509
   C      -24.79545        -3.98889        -5.66443
   C      -23.54143        -3.44647        -5.83485
   C      -26.64374        -5.49069        -6.43925
   C      -27.44678        -5.51459        -7.67538
   C      -27.51619        -4.37863        -8.47921
   C      -28.25785        -4.38766        -9.64555
   C      -28.92947        -5.53469       -10.03406
   C      -28.84923        -6.67547        -9.25231
   C      -28.11320        -6.66815        -8.08298
   C      -27.10374        -5.98703        -5.26877
   C      -26.25346        -6.13878        -4.07761
   C      -26.74695        -5.78182        -2.82396
   C      -25.96550        -5.92844        -1.69347
   C      -24.68539        -6.44718        -1.79490
   C      -24.19387        -6.82551        -3.03373
   C      -24.97023        -6.67508        -4.16672
   C      -28.49313        -6.44601        -5.11665
   C      -29.56574        -5.67280        -5.55683
   C      -30.85941        -6.13695        -5.44324
   C      -31.12155        -7.39327        -4.89969
   C      -30.05047        -8.15035        -4.42844
   C      -28.75806        -7.67818        -4.52153
   C      -32.48964        -7.92156        -4.84383
   C      -32.74063        -9.25129        -5.17953
   C      -34.02108        -9.75955        -5.14718
   C      -35.09562        -8.95722        -4.76530
   C      -34.84808        -7.62346        -4.44454
   C      -33.56582        -7.11465        -4.48148
   C      -36.46583        -9.49049        -4.74992
   C      -37.49052        -8.61662        -5.34393
   C      -38.71556        -8.41383        -4.71114
   C      -39.66082        -7.57302        -5.26625
   C      -39.39933        -6.91930        -6.45923
   C      -38.18026        -7.10393        -7.08970
   C      -37.23022        -7.94002        -6.53429
   C      -36.75944       -10.70512        -4.23200
   C      -35.78397       -11.48411        -3.45155
   C      -35.02184       -10.88299        -2.45120
   C      -34.12319       -11.62713        -1.71168
   C      -33.97138       -12.98229        -1.95586
   C      -34.73359       -13.59217        -2.93828
   C      -35.63820       -12.85184        -3.67569
   C      -38.07169       -11.34619        -4.41465
   C      -38.68510       -11.37641        -5.66602
   C      -39.90141       -12.00905        -5.83534
   C      -40.52467       -12.62227        -4.76071
   C      -39.91815       -12.60777        -3.51548
   C      -38.69813       -11.98136        -3.34408
   H        1.59184         7.13210        -8.65166
   H        1.28644         6.11027        -6.42587
   H       -0.96508         5.48177        -5.65541
   H       -2.61494         6.88232        -9.33724
   H       -0.36583         7.50837       -10.10683
   H       -2.13094         3.48442        -7.83828
   H       -2.22930         1.25784        -6.79439
   H       -3.50576         0.92417        -4.70856
   H       -4.66352         2.83584        -3.66094
   H       -4.56213         5.06042        -4.70038
   H       -5.92710         7.79986        -8.90801
   H       -5.80984        10.15570        -9.60880
   H       -4.10440        11.65236        -8.63724
   H       -2.53089        10.78275        -6.94621
   H       -2.64928         8.43053        -6.24334
   H       -6.34731         7.78123        -5.77144
   H       -8.62038         6.97881        -5.36335
   H       -7.74219         3.40694        -7.54686
   H       -5.46513         4.21503        -7.94965
   H      -10.57767         6.01616        -4.77760
   H      -14.05141        -0.41679        -8.01729
   H      -17.10633         1.72321        -4.90845
   H      -20.51267        -4.48237        -8.62907
   H      -22.68166        -4.98502        -8.72267
   H      -24.91333        -5.93430        -8.42253
   H      -25.39776        -3.69596        -4.81751
   H      -23.15887        -2.73567        -5.11629
   H      -26.99335        -3.48234        -8.17582
   H      -28.31071        -3.49703       -10.25475
   H      -29.50887        -5.54148       -10.94545
   H      -29.36131        -7.57654        -9.55690
   H      -28.04282        -7.56355        -7.48313
   H      -27.74583        -5.37631        -2.74449
   H      -26.35717        -5.63916        -0.72904
   H      -24.07531        -6.56249        -0.91123
   H      -23.20117        -7.24343        -3.11661
   H      -24.58894        -6.98619        -5.12831
   H      -29.37777        -4.70103        -5.98940
   H      -31.67782        -5.53306        -5.80736
   H      -30.23918        -9.11106        -3.97136
   H      -27.93573        -8.27688        -4.15535
   H      -31.92313        -9.88259        -5.49606
   H      -34.19965       -10.78521        -5.43447
   H      -35.67203        -6.98820        -4.15085
   H      -33.39048        -6.08444        -4.20704
   H      -38.91783        -8.91021        -3.77343
   H      -40.60552        -7.42352        -4.76400
   H      -40.14112        -6.26536        -6.89339
   H      -37.96877        -6.59321        -8.01801
   H      -36.27981        -8.08461        -7.02880
   H      -35.14689        -9.82938        -2.24878
   H      -33.53999       -11.14845        -0.93835
   H      -33.26521       -13.56157        -1.37937
   H      -34.62346       -14.64985        -3.12964
   H      -36.23087       -13.32883        -4.44376
   H      -38.19473       -10.91213        -6.50912
   H      -40.36310       -12.02958        -6.81188
   H      -41.47603       -13.11553        -4.89499
   H      -40.39753       -13.08817        -2.67475
   H      -38.22606       -11.96968        -2.37158
*
