# ORCA input file
# SCF done       -295.237881403558          0.000691695592
! CAM-B3LYP def2-SVP def2/J RIJCOSX Grid4 TightSCF
%maxcore 5000
%tddft
    Mode sTDDFT
    Ethresh 5.0
    maxcore 5000
end

%pal
  nprocs 6
  end
* xyz 0 1
   C        0.78910         0.55792        -0.01371
   O        0.32391        -0.59137        -0.47367
   C        0.12974        -1.42567         0.57975
   C        0.48890        -0.77265         1.75879
   C        0.91898         0.52783         1.35550
   C        1.42146         1.69491         2.12822
   F        1.69681         2.72762         1.31776
   F        0.54406         2.16256         3.03665
   F        2.55764         1.44519         2.80764
   O        0.39770        -1.37413         2.95507
   C        0.77705        -0.68177         4.12955
   C       -0.37484        -2.73504         0.32498
   C       -0.61651        -3.66104         1.27509
   C       -1.12266        -4.97084         1.01900
   C       -1.49108        -5.55372        -0.16116
   C       -1.94993        -6.88531        -0.02694
   C       -2.38816        -7.76274        -1.04025
   C       -2.35885        -7.41482        -2.44662
   C       -3.26474        -7.74986        -3.41182
   C       -2.88373        -7.30953        -4.69771
   C       -1.69249        -6.64712        -4.74062
   S       -1.01627        -6.55029        -3.14942
   C       -0.99342        -6.05734        -5.91018
  Cl       -3.85649        -7.59803        -6.08946
   C       -2.83718        -9.01334        -0.62673
   C       -2.83245        -9.43543         0.72526
   C       -2.35534        -8.57421         1.73238
   C       -1.95092        -7.30766         1.32717
   S       -1.34123        -6.05987         2.37389
   C       -2.28052        -9.01299         3.11167
   C       -1.85834       -10.22232         3.58394
   C       -1.92830       -10.31168         4.99125
   C       -2.40250        -9.18955         5.60520
   S       -2.76804        -7.97651         4.42444
   C       -2.61435        -8.93923         7.05326
  Cl       -1.45096       -11.73036         5.84455
   C       -3.35197       -10.74541         0.87253
   C       -3.70910       -11.32855        -0.30606
   S       -3.43193       -10.27232        -1.67571
   C       -4.25770       -12.62726        -0.51110
   C       -4.65782       -13.18123        -1.68991
   C       -5.16055       -14.49900        -1.56119
   C       -5.63530       -15.35019        -2.57849
   C       -5.62424       -14.97793        -3.97862
   C       -6.55801       -15.27422        -4.93047
   C       -6.20237       -14.80015        -6.21143
   C       -5.00187       -14.15447        -6.26439
   S       -4.28469       -14.11610        -4.68977
   C       -4.32519       -13.53288        -7.43032
  Cl       -7.21408       -15.02919        -7.58597
   C       -6.10329       -16.59675        -2.17269
   C       -6.08677       -17.03538        -0.82539
   C       -5.59490       -16.19090         0.19055
   C       -5.15854       -14.93242        -0.21180
   S       -4.49647       -13.71200         0.84203
   C       -5.52117       -16.59925         1.57903
   C       -5.74374       -15.83478         2.68861
   C       -5.53474       -16.54080         3.89306
   C       -5.14370       -17.83719         3.72897
   S       -5.03208       -18.20909         2.04188
   C       -4.83963       -18.85876         4.76264
  Cl       -5.76116       -15.80896         5.43511
   C       -6.60669       -18.34476        -0.69290
   C       -6.97891       -18.91136        -1.87722
   S       -6.72503       -17.83398        -3.22933
   C       -7.51411       -20.22036        -2.07024
   C       -7.63145       -21.20200        -1.12918
   C       -8.19019       -22.40348        -1.62553
   C       -8.42412       -23.60542        -0.92764
   C       -8.02586       -23.79530         0.45219
   C       -8.67693       -24.49457         1.42943
   C       -7.96770       -24.51838         2.64879
   C       -6.77289       -23.85865         2.62234
   S       -6.50916       -23.17867         1.05551
   C       -5.77678       -23.70454         3.71334
  Cl       -8.56480       -25.31133         4.05384
   C       -9.04704       -24.62507        -1.64366
   C       -9.40078       -24.50922        -3.01081
   C       -9.11664       -23.32512        -3.72165
   C       -8.53811       -22.29161        -2.99568
   S       -8.10588       -20.73024        -3.63354
   C       -9.40670       -23.21469        -5.13679
   C       -9.21440       -24.15337        -6.10972
   C       -9.62161       -23.70567        -7.38515
   C      -10.12757       -22.43872        -7.40448
   S      -10.09702       -21.76364        -5.81041
   C      -10.64898       -21.66010        -8.55598
  Cl       -9.48452       -24.69380        -8.79043
   C      -10.04111       -25.67664        -3.48685
   C      -10.14532       -26.66379        -2.54652
   S       -9.46248       -26.19370        -1.01300
   C      -10.75350       -27.93962        -2.76896
   O      -11.21392       -28.19214        -4.00076
   C      -11.75984       -29.44083        -4.03416
   C      -11.64351       -30.00969        -2.77253
   C      -10.99299       -29.03673        -1.95799
   C      -10.64877       -29.18676        -0.51984
   F       -9.32107       -29.08540        -0.29572
   F      -11.22357       -28.23660         0.24821
   F      -11.02199       -30.35601         0.00089
   O      -12.00506       -31.19559        -2.25756
   C      -12.64471       -32.15167        -3.06940
   C      -12.30864       -29.87779        -5.29357
   C      -12.30042       -29.12512        -6.39281
   H        1.00183         1.34308        -0.71202
   H        0.61393        -1.38958         4.94049
   H        0.15595         0.20107         4.29449
   H        1.83175        -0.39938         4.10724
   H       -0.55729        -2.94692        -0.71833
   H       -0.41836        -3.41951         2.30809
   H       -1.44871        -5.03810        -1.10144
   H       -4.19050        -8.25932        -3.22112
   H       -1.59750        -6.19362        -6.80371
   H       -0.02618        -6.53610        -6.06111
   H       -0.81991        -4.99264        -5.75791
   H       -1.46978       -11.00912         2.96424
   H       -2.27626        -9.79861         7.62687
   H       -3.66996        -8.76831         7.26301
   H       -2.06185        -8.05718         7.37432
   H       -3.48268       -11.23535         1.82010
   H       -4.59848       -12.64467        -2.61877
   H       -7.48590       -15.77726        -4.73245
   H       -4.92860       -13.67685        -8.32308
   H       -3.34422       -13.97972        -7.58886
   H       -4.18392       -12.46476        -7.26676
   H       -6.08245       -14.81609         2.66261
   H       -3.78124       -19.12068         4.74547
   H       -5.41445       -19.76703         4.58453
   H       -5.08764       -18.46743         5.74658
   H       -6.71677       -18.84807         0.24804
   H       -7.32808       -21.06393        -0.10947
   H       -9.64223       -24.94934         1.30818
   H       -6.28648       -23.62425         4.67173
   H       -5.16563       -22.82028         3.54985
   H       -5.11824       -24.57335         3.75363
   H       -8.75853       -25.11129        -5.94080
   H      -10.57759       -22.25368        -9.46398
   H      -10.07742       -20.74186        -8.68634
   H      -11.69071       -21.38548        -8.39328
   H      -10.43897       -25.78333        -4.47825
   H      -12.81939       -33.00606        -2.41723
   H      -12.00708       -32.45717        -3.90386
   H      -13.60273       -31.77992        -3.44409
   H      -12.74112       -30.86423        -5.32104
   H      -11.87692       -28.13651        -6.39600
   H      -12.71884       -29.48247        -7.31622
*
