# ORCA input file
# SCF done       -145.518424352299          0.000767886171
! CAM-B3LYP def2-SVP def2/J RIJCOSX Grid4 TightSCF
%maxcore 5000
%tddft
    Mode sTDDFT
    Ethresh 5.0
    maxcore 5000
end

%pal
  nprocs 6
  end
* xyz 0 1
   C       -1.91522         1.09977         0.30454
   C       -1.06014         1.95897         0.90380
   C       -1.19237         2.39210         2.23882
   C       -2.25662         1.82720         3.08355
   C       -3.21112         0.97026         2.65806
   S       -3.31071         0.38803         1.04654
   C       -2.04671         2.37700         4.37860
   C       -0.94395         3.22423         4.34992
   C       -0.68546         3.80625         5.60973
   C       -1.58090         3.39028         6.54403
   S       -2.76848         2.28662         5.93800
   C       -0.40949         3.26271         3.00697
   C        0.69221         4.08665         2.66687
   C        1.06671         4.48794         1.42168
   C        2.15245         5.33937         1.11828
   C        3.29713         5.70589         1.85340
   C        4.05943         6.72822         1.21022
   C        5.22330         7.22421         1.82626
   C        5.62983         6.69993         3.02112
   C        4.91644         5.65020         3.62545
   C        3.77583         5.15366         3.05737
   C        3.53257         7.11517        -0.03559
   S        2.11135         6.18538        -0.39780
   C        3.99813         8.12769        -0.89115
   C        3.48239         8.40808        -2.11777
   C        3.90055         9.48749        -2.92823
   C        3.48098         9.80130        -4.20867
   C        4.07893        11.00553        -4.70495
   C        3.82397        11.67958        -5.89733
   C        4.58112        12.79712        -6.21825
   C        5.56081        13.28721        -5.33933
   C        5.76449        12.67658        -4.12160
   C        5.02387        11.54550        -3.81069
   S        5.10664        10.62601        -2.34173
   C        4.36749        13.43596        -7.46022
   N        4.20364        13.94290        -8.47545
   C        2.65053         8.96508        -5.04602
   C        2.94360         8.60806        -6.33973
   C        1.91946         7.79632        -6.93044
   C        1.89236         7.20694        -8.19167
   C        0.79664         6.43452        -8.55049
   C       -0.27348         6.23215        -7.66197
   C       -0.24594         6.79059        -6.40441
   C        0.84890         7.56456        -6.04362
   S        1.11030         8.32888        -4.50641
   C        0.75354         5.83654        -9.83078
   N        0.71454         5.34851       -10.86732
   C        4.17906         8.97074        -7.00153
   C        4.34261         9.62387        -8.21675
   C        5.71565         9.92396        -8.49906
   C        6.03481        10.62985        -9.68113
   C        5.03658        11.03206       -10.51566
   C        3.68202        10.75955       -10.22171
   C        3.33187        10.07101        -9.10145
   C        6.58186         9.48806        -7.49698
   S        5.69947         8.71973        -6.22227
   C        8.00402         9.63202        -7.43980
   C        8.77375         9.24200        -6.42368
   H       -1.78826         0.77927        -0.71558
   H       -0.21602         2.30349         0.32532
   H       -3.98391         0.59651         3.31091
   H        0.11352         4.49355         5.82281
   H       -1.62546         3.66576         7.57972
   H        1.22336         4.49249         3.51627
   H        0.43802         4.23885         0.57803
   H        5.79373         8.00396         1.34565
   H        6.52240         7.07376         3.50013
   H        5.28685         5.22572         4.54668
   H        3.26541         4.31884         3.50937
   H        4.81829         8.73043        -0.52278
   H        2.68576         7.78751        -2.50488
   H        3.04666        11.34427        -6.56563
   H        6.13717        14.15514        -5.62074
   H        6.48898        13.06164        -3.42132
   H        2.71296         7.34725        -8.87904
   H       -1.11128         5.62777        -7.97482
   H       -1.05376         6.63216        -5.70725
   H        7.06585        10.85477        -9.90683
   H        5.27197        11.58123       -11.41426
   H        2.92012        11.11420       -10.89876
   H        2.29559         9.87258        -8.86910
   H        8.45186        10.10461        -8.30370
   H        8.35553         8.77282        -5.54822
   H        9.83968         9.38138        -6.43752
*
