# ORCA input file
# SCF done       -240.119606669270          0.000964883900
! CAM-B3LYP def2-SVP def2/J RIJCOSX Grid4 TightSCF
%maxcore 5000
%tddft
    Mode sTDDFT
    Ethresh 5.0
    maxcore 5000
end

%pal
  nprocs 6
  end
* xyz 0 1
   C        5.19319        -7.22704         6.45435
   C        4.97327        -7.01067         7.80688
   F        5.57466        -7.80665         8.69716
   C        4.13912        -5.98688         8.25796
   F        3.96246        -5.80943         9.57250
   C        3.48888        -5.15443         7.36048
   C        3.69740        -5.37602         6.01359
   C        4.54701        -6.39794         5.55300
   C        4.60075        -6.33841         4.09200
   C        5.62422        -6.82496         3.32020
   C        6.65539        -7.65150         3.80947
   N        7.50112        -8.34503         4.15711
   C        5.80909        -6.45772         1.97115
   N        6.01307        -6.12965         0.89020
   C        3.57285        -5.41856         3.66586
   C        3.11056        -4.66158         4.85514
   O        2.37585        -3.70171         4.87004
   C        2.95730        -5.22167         2.46000
   C        2.89335        -6.06660         1.34274
   S        3.23427        -7.78123         1.39131
   C        2.84379        -8.01339        -0.28434
   C        2.45641        -6.80721        -0.84602
   C        2.45853        -5.71402         0.05849
   C        2.06425        -4.50922        -0.56416
   C        1.77225        -4.69248        -1.88456
   C        1.33069        -3.70848        -2.87959
   O        1.10716        -3.97972        -4.03361
   O        1.20637        -2.48604        -2.35191
   C        0.78601        -1.46714        -3.24981
   S        1.96673        -6.33540        -2.43817
   C        2.96169        -9.27898        -0.90761
   C        2.69974        -9.57248        -2.22037
   C        2.96348       -10.91500        -2.56240
   C        2.78195       -11.53729        -3.81737
   C        2.35630       -10.80688        -4.99140
   C        1.52677       -11.23346        -5.99120
   C        1.35572       -10.27054        -7.00773
   C        2.05555        -9.11323        -6.81413
   S        2.94657        -9.20116        -5.33585
   C        2.10803        -7.89954        -7.66517
  Cl        0.34384       -10.54744        -8.37161
   C        3.05243       -12.90039        -3.86982
   C        3.49306       -13.65640        -2.75313
   C        3.67337       -13.03350        -1.49899
   C        3.41394       -11.66830        -1.44739
   S        3.53463       -10.67400        -0.02165
   C        4.08349       -13.75778        -0.31461
   C        4.89708       -13.32463         0.69390
   C        5.02002       -14.26302         1.74112
   C        4.30154       -15.40951         1.55975
   S        3.45749       -15.34519         0.05039
   C        4.19232       -16.59102         2.45087
  Cl        5.99482       -13.96473         3.12799
   C        3.76324       -14.99854        -3.10211
   C        3.53810       -15.27959        -4.42152
   S        2.96552       -13.88233        -5.30594
   C        3.72032       -16.52180        -5.08673
   C        3.55207       -16.78396        -6.43368
   C        3.82539       -18.11576        -6.74270
   C        4.20163       -18.87224        -5.61825
   S        4.22073       -17.94139        -4.18543
   C        4.46505       -20.20122        -6.03102
   C        4.25179       -20.28341        -7.42363
   C        3.85602       -18.97486        -7.91570
   C        3.61314       -18.62989        -9.21225
   C        3.24978       -17.31931        -9.58807
   N        2.94840       -16.25720        -9.89598
   C        3.71991       -19.57714       -10.25299
   N        3.80887       -20.36228       -11.08384
   C        4.51296       -21.54455        -7.93789
   C        4.93032       -22.43683        -6.95813
   S        4.96016       -21.68427        -5.36431
   C        5.26214       -23.80052        -7.07677
   C        5.57504       -24.52179        -8.19224
   C        5.46556       -26.00505        -8.12699
   O        5.32381       -26.67736        -7.13351
   C        5.51381       -26.45799        -9.53430
   C        5.76000       -25.35591       -10.37206
   C        5.81002       -25.52406       -11.74629
   C        5.62044       -26.80231       -12.25061
   C        5.39365       -27.89494       -11.41159
   C        5.33547       -27.73217       -10.03677
   F        5.22533       -29.11128       -11.94184
   F        5.65332       -26.98892       -13.57321
   C        5.95013       -24.16369        -9.54320
   C        6.61285       -23.03474        -9.94709
   C        7.01099       -22.00153        -9.07606
   N        7.37974       -21.15156        -8.39827
   C        7.06671       -22.81622       -11.26604
   N        7.45862       -22.58981       -12.31972
   H        5.84380        -8.03075         6.14991
   H        2.84479        -4.36307         7.70923
   H        2.36351        -4.31485         2.39265
   H        1.99894        -3.55474        -0.07616
   H        0.73109        -0.55311        -2.66484
   H       -0.19001        -1.71389        -3.67239
   H        1.50503        -1.36059        -4.06443
   H        2.31920        -8.84232        -2.90822
   H        1.01639       -12.17848        -5.99346
   H        3.12627        -7.71213        -8.00480
   H        1.77689        -7.02566        -7.10470
   H        1.46504        -8.03106        -8.53162
   H        5.42838       -12.39130         0.68534
   H        4.77873       -16.42339         3.35055
   H        4.55967       -17.48640         1.95027
   H        3.15421       -16.76632         2.73129
   H        4.13303       -15.73575        -2.41327
   H        3.24925       -16.02999        -7.13801
   H        4.36510       -21.82934        -8.96346
   H        5.19910       -24.38820        -6.16553
   H        5.97552       -24.70971       -12.43274
   H        5.15690       -28.57455        -9.38771
*
