# ORCA input file
# SCF done       -140.610905646053          0.000391093915
! CAM-B3LYP def2-SVP def2/J RIJCOSX Grid4 TightSCF
%maxcore 5000
%tddft
    Mode sTDDFT
    Ethresh 5.0
    maxcore 5000
end

%pal
  nprocs 6
  end
* xyz 0 1
   C        2.96226         1.44089         1.87213
   S        1.64273         2.37146         1.29630
   C        2.63057         3.02252         0.02714
   C        3.91231         2.52344         0.06573
   C        4.09612         1.61069         1.13353
   C        5.39468         0.89747         1.39567
   C        5.69826         0.86520         2.86405
   C        5.94991        -0.23122         3.55313
   C        6.53088         1.59161         0.63330
   C        6.13188         1.83966        -0.81642
   C        5.01028         2.87294        -0.88335
   C        2.02220         3.94510        -0.89611
   N        0.70309         4.12678        -0.76363
   C        0.12494         4.95055        -1.61583
   C        0.82790         5.60629        -2.61292
   C        2.20763         5.37113        -2.66786
   N        2.79097         4.54003        -1.79936
   C        3.05490         6.01059        -3.64937
   C        4.39169         5.85270        -3.61775
   C        5.33707         6.38000        -4.53685
   S        4.86882         7.00034        -6.09356
   C        6.51712         7.16321        -6.56016
   C        7.39049         6.76806        -5.59861
   C        8.87527         6.81454        -5.73906
   C        6.72298         6.33531        -4.41172
   C        7.40761         5.93148        -3.21664
   C        6.96273         6.20387        -1.96552
   C        7.55829         5.76669        -0.75224
   C        8.42777         4.72351        -0.62317
   C        8.93682         4.29020         0.61064
   C        9.67071         3.14433         0.78748
   C       10.17973         2.63581         2.00669
   C       10.82048         1.44043         1.89196
   C       10.85237         0.93120         0.57351
   S       10.05707         2.03691        -0.52307
   C       11.39110        -0.26380         0.14114
   C       12.05814        -1.24454         0.90990
   C       12.45523        -2.33031         0.19398
   C       12.12245        -2.27493        -1.18505
   S       11.29224        -0.76990        -1.53589
   C       12.38948        -3.24525        -2.11247
   C       12.06443        -3.23179        -3.48020
   S       11.24934        -1.92292        -4.32082
   C       11.26815        -2.72003        -5.84394
   C       11.87203        -3.95099        -5.73922
   C       12.31478        -4.22670        -4.41028
   O       12.89780        -5.44183        -4.33659
   C       12.83216        -5.94394        -5.59962
   N       13.37294        -7.23114        -5.82295
   O       13.30263        -7.65827        -6.96091
   O       13.86278        -7.81561        -4.88046
   C       12.22882        -5.10127        -6.49486
   H        2.83541         0.80949         2.72968
   H        5.30506        -0.13279         1.02849
   H        5.71321         1.83362         3.34739
   H        5.93818        -1.20559         3.09209
   H        6.17566        -0.20660         4.60590
   H        7.42523         0.96731         0.68305
   H        6.75986         2.54666         1.11182
   H        5.79738         0.90191        -1.26515
   H        6.99305         2.19632        -1.38346
   H        4.60632         2.95214        -1.89379
   H        5.40421         3.85949        -0.61790
   H       -0.94272         5.08401        -1.49033
   H        0.34340         6.27233        -3.30828
   H        2.57478         6.62788        -4.39595
   H        4.79558         5.24083        -2.82209
   H        6.74550         7.55054        -7.53386
   H        9.15318         7.23640        -6.70123
   H        9.29422         5.81128        -5.66424
   H        9.31152         7.42270        -4.94775
   H        8.35824         5.43399        -3.35245
   H        6.09702         6.84531        -1.86061
   H        7.23983         6.27530         0.14946
   H        8.71660         4.15519        -1.49749
   H        8.71274         4.87623         1.49299
   H       10.04904         3.16920         2.93176
   H       11.26137         0.90877         2.71573
   H       12.22550        -1.12184         1.96479
   H       12.97505        -3.17696         0.60594
   H       12.90236        -4.13558        -1.77296
   H       10.84236        -2.24397        -6.70209
   H       12.07317        -5.29600        -7.53554
*
