# ORCA input file
# SCF done       -168.845342995046          0.000643977895
! CAM-B3LYP def2-SVP def2/J RIJCOSX Grid4 TightSCF
%maxcore 5000
%tddft
    Mode sTDDFT
    Ethresh 5.0
    maxcore 5000
end

%pal
  nprocs 6
  end
* xyz 0 1
   C       -0.36672        -0.76230        -0.35727
   S       -0.24208         0.87843         0.15362
   C       -1.27135         1.42753        -1.13219
   C       -1.68205         0.35524        -1.91414
   C       -1.15654        -0.89756        -1.46059
   O       -1.47019        -2.02839        -2.12706
   C       -0.92635        -3.23180        -1.63937
   C       -2.51352         0.43275        -3.03832
   N       -3.19383         0.47403        -3.96361
   C       -1.55136         2.81674        -1.23750
   C       -2.34715         3.38785        -2.17137
   C       -2.59558         4.77988        -2.27112
   S       -1.86677         5.93002        -1.18991
   C       -2.64094         7.26630        -1.99990
   C       -3.44047         6.81818        -3.04132
   C       -3.40470         5.42150        -3.19761
   C       -4.19037         4.69782        -4.24666
   C       -4.72826         5.66330        -5.30064
   C       -5.36618         6.90090        -4.64777
   N       -6.45402         6.61951        -3.72751
   C       -4.28741         7.69793        -3.90640
   C       -2.34487         8.56789        -1.50199
   C       -2.59619         9.76255        -2.07903
   C       -2.19182        10.99087        -1.46293
   C       -2.32913        12.21835        -1.98938
   C       -2.97408        12.49768        -3.31345
   C       -1.77711        13.42165        -1.26428
   N       -2.78881        14.41547        -1.00471
   C       -2.79115        15.65748        -1.50682
   C       -3.75656        16.59326        -1.27479
   C       -3.68241        17.89339        -1.79300
   C       -4.58704        18.89724        -1.55078
   C       -4.53072        20.22484        -2.03092
   C       -5.55131        21.02014        -1.60202
   C       -6.47409        20.36234        -0.75995
   S       -6.01232        18.69744        -0.53351
   C       -7.59851        20.90756        -0.15846
   C       -8.06200        22.23262        -0.24832
   C       -9.19724        22.46865         0.47543
   C       -9.68628        21.34123         1.16455
   S       -8.65348        19.96530         0.87656
   C      -10.81017        21.30217         1.97487
   C      -11.28319        20.15801         2.59347
   C      -12.38102        20.04589         3.43041
   C      -13.03285        18.73493         3.60251
   O      -12.61011        17.65074         3.25197
   C      -14.33402        19.02401         4.24568
   C      -15.36116        18.17563         4.53428
   C      -16.54257        18.69400         5.11446
   C      -16.63143        20.08980         5.38228
   C      -17.81375        20.60241         5.94966
   C      -18.84627        19.75239         6.23239
   C      -18.77823        18.37711         5.97873
   C      -17.63683        17.86338         5.42710
   F      -19.97986        20.24223         6.77570
   C      -15.54310        20.94431         5.08194
   C      -14.41070        20.41799         4.52588
   C      -13.14274        21.03629         4.12996
   C      -12.71528        22.27857         4.54997
   C      -11.39416        22.74756         4.43010
   N      -10.32382        23.16640         4.40940
   C      -13.52114        23.18887         5.25649
   N      -14.13673        23.98557         5.81164
   H        0.15399        -1.51788         0.19429
   H       -1.28826        -4.01220        -2.30558
   H       -1.26468        -3.43474        -0.61831
   H        0.16788        -3.20986        -1.66005
   H       -1.07291         3.44541        -0.49675
   H       -2.83724         2.76619        -2.90531
   H       -5.02013         4.16590        -3.76769
   H       -3.56849         3.93906        -4.72653
   H       -5.46226         5.14872        -5.92443
   H       -3.91261         5.99438        -5.94636
   H       -5.78670         7.53643        -5.43800
   H       -6.11378         6.09594        -2.92829
   H       -7.17245         6.06725        -4.18234
   H       -4.78127         8.45291        -3.29140
   H       -3.65258         8.20752        -4.63735
   H       -1.81473         8.56647        -0.55618
   H       -3.07260         9.82268        -3.04194
   H       -1.70747        10.89228        -0.49898
   H       -3.90106        11.93974        -3.42526
   H       -2.30906        12.20900        -4.12822
   H       -3.19680        13.55724        -3.41693
   H       -0.99789        13.88893        -1.87530
   H       -1.32603        13.10692        -0.31612
   H       -3.57842        14.12535        -0.44650
   H       -1.93527        15.91024        -2.12007
   H       -4.60592        16.34260        -0.65441
   H       -2.83796        18.13963        -2.42459
   H       -3.73418        20.55402        -2.67510
   H       -5.66196        22.05622        -1.86566
   H       -7.55592        22.97835        -0.83465
   H       -9.69210        23.42117         0.53881
   H      -11.34692        22.23350         2.08408
   H      -10.81431        19.21465         2.32909
   H      -15.27841        17.12032         4.32083
   H      -17.90010        21.65683         6.16134
   H      -19.62456        17.75458         6.22264
   H      -17.56042        16.80603         5.22136
   H      -15.64119        21.99744         5.29237
*
