# ORCA input file
# SCF done       -152.920973823605          0.003432699213
! CAM-B3LYP def2-SVP def2/J RIJCOSX Grid4 TightSCF
%maxcore 5000
%tddft
    Mode sTDDFT
    Ethresh 5.0
    maxcore 5000
end

%pal
  nprocs 6
  end
* xyz 0 1
   C       -3.75972        -8.02587         2.92039
   C       -2.88299        -8.83355         3.60120
   C       -3.20788        -9.53424         4.78072
   N       -3.40849       -10.12232         5.74643
   C       -1.53913        -9.06311         3.24076
   N       -0.43209        -9.28111         3.02389
   C       -5.12657        -7.72547         3.33982
   C       -5.69783        -6.82488         2.40905
   C       -6.96737        -6.32195         2.54253
   C       -7.70833        -6.71748         3.66079
   C       -7.13503        -7.61997         4.58686
   C       -5.85272        -8.13717         4.44239
   S       -8.21983        -7.97156         5.89895
   C       -9.41421        -6.92006         5.19419
   C       -9.02169        -6.33041         4.03802
  Br      -11.07619        -6.67173         6.02988
   C       -4.71254        -6.52304         1.35290
   O       -4.91592        -5.87631         0.34624
   C       -3.47916        -7.24227         1.73585
   C       -2.31649        -7.25668         1.00241
   C       -1.90617        -6.30332         0.05275
   S       -0.79585        -6.79367        -1.20080
   C       -0.80804        -5.21742        -1.86246
   C       -1.58396        -4.33199        -1.17252
   C       -1.69683        -2.89437        -1.55633
   C       -2.21478        -4.93709        -0.04955
   C       -2.98145        -4.29468         0.97508
   C       -3.81808        -3.24154         0.85745
   C       -4.67268        -2.76525         1.90481
   C       -4.86948        -3.35452         3.10493
   C       -5.80012        -2.86461         4.07578
   C       -6.03244        -3.39127         5.29006
   C       -5.35338        -4.60717         5.83968
   C       -7.01912        -2.73801         6.23006
   N       -8.09717        -3.63601         6.57110
   C       -8.27470        -4.27885         7.74542
   C       -7.65392        -4.02730         8.93181
   C       -7.87283        -4.73716        10.13386
   C       -8.49507        -5.94193        10.33557
   C       -8.67737        -6.58404        11.58806
   C       -9.25985        -7.81295        11.52396
   C       -9.57435        -8.22983        10.21031
   S       -9.12418        -6.98922         9.06761
   C      -10.14297        -9.40812         9.77520
   C      -10.60417       -10.51367        10.52058
   C      -11.10408       -11.52497         9.75895
   C      -11.06467       -11.28369         8.35933
   S      -10.37285        -9.70460         8.05907
   C      -11.48534       -12.13613         7.37502
   C      -11.42723       -11.92642         5.98028
   S      -10.77617       -10.46759         5.25104
   C      -11.06360       -11.04757         3.67450
   C      -11.63391       -12.29816         3.69933
   C      -11.84353       -12.80005         4.99832
   N      -11.97562       -13.00777         2.51815
   O      -11.71942       -12.48161         1.45045
   O      -12.50224       -14.09528         2.64382
   H       -7.36911        -5.63658         1.81355
   H       -5.46205        -8.82445         5.17421
   H       -9.63932        -5.66173         3.46567
   H       -1.63427        -8.08519         1.14363
   H       -0.23000        -5.01678        -2.74424
   H       -0.90112        -2.62785        -2.24775
   H       -1.63161        -2.25885        -0.67522
   H       -2.65128        -2.70629        -2.04815
   H       -2.91606        -4.78778         1.93819
   H       -3.93763        -2.75823        -0.10011
   H       -5.25006        -1.87827         1.67206
   H       -4.31981        -4.24769         3.36184
   H       -6.34961        -1.97562         3.78744
   H       -5.09676        -5.31839         5.05828
   H       -5.99217        -5.10799         6.56464
   H       -4.43458        -4.31942         6.35369
   H       -7.43918        -1.83782         5.76861
   H       -6.50614        -2.44569         7.14814
   H       -8.64551        -3.95798         5.78873
   H       -9.05473        -5.02401         7.71300
   H       -6.95298        -3.20757         9.00378
   H       -7.45953        -4.28372        11.02702
   H       -8.36451        -6.11211        12.50357
   H       -9.45836        -8.43637        12.37734
   H      -10.55523       -10.53099        11.59421
   H      -11.49981       -12.44503        10.15036
   H      -11.90206       -13.08475         7.68520
   H      -10.81154       -10.47017         2.80804
   H      -12.27847       -13.76259         5.19161
*
