# ORCA input file
# SCF done       -188.104476443413          0.000933691068
! CAM-B3LYP def2-SVP def2/J RIJCOSX Grid4 TightSCF
%maxcore 5000
%tddft
    Mode sTDDFT
    Ethresh 5.0
    maxcore 5000
end

%pal
  nprocs 6
  end
* xyz 0 1
   C       -8.09183         0.90820        -9.42537
   C       -9.21473         0.32331        -9.94355
   C       -9.25270        -0.33119       -11.19268
   N       -9.36116        -0.85091       -12.21058
   C      -10.50764         0.32175        -9.37270
   N      -11.59455         0.25976        -9.00929
   C       -6.79445         0.95452       -10.07977
   C       -5.95108         1.83345        -9.35961
   C       -4.68205         2.15451        -9.77870
   C       -4.21652         1.56250       -10.95499
   C       -5.04180         0.63220       -11.63145
   C       -6.32588         0.31587       -11.21523
   S       -4.25975        -0.00516       -13.04576
   C       -2.86653         0.99414       -12.72818
   C       -2.97114         1.75464       -11.61368
  Br       -1.41192         0.93633       -13.90491
   C       -6.63012         2.28277        -8.13022
   O       -6.11566         2.91038        -7.23696
   C       -8.00683         1.69216        -8.19034
   C       -8.99014         1.77516        -7.26860
   C       -9.05462         2.58117        -6.06024
   N       -9.99952         2.19892        -5.19182
   C      -10.12641         2.92089        -4.09384
   C       -9.32317         4.01740        -3.82538
   C       -8.35127         4.33800        -4.78509
   N       -8.25533         3.61824        -5.90463
   C       -7.40525         5.41610        -4.60140
   C       -6.36067         5.52111        -5.44872
   C       -5.26469         6.42458        -5.44880
   S       -3.94446         6.01389        -6.49177
   C       -3.03205         7.41861        -6.00494
   C       -3.74333         8.15477        -5.05369
   C       -5.00402         7.60903        -4.76637
   C       -5.99572         8.29288        -3.87954
   C       -5.63954         9.76913        -3.73099
   C       -4.18751         9.89361        -3.29509
   C       -3.23259         9.41497        -4.39613
   O       -1.92576         9.26129        -3.87732
   C       -1.82034         7.60032        -6.70573
   C       -0.86086         8.56587        -6.58508
   C        0.24849         8.68395        -7.44226
   C        0.46041         8.09330        -8.66947
   C        1.62403         8.24825        -9.46297
   C        1.58436         7.60950       -10.66763
   C        0.37509         6.92307       -10.90412
   S       -0.69389         7.09449        -9.53918
   C       -0.01194         6.19683       -12.01952
   C        0.72718         5.90070       -13.17965
   C        0.03085         5.17383       -14.10430
   C       -1.29376         4.87428       -13.72387
   S       -1.62347         5.51944       -12.13532
   C       -2.23405         4.19437       -14.47794
   C       -3.53716         3.97269       -14.05681
   C       -4.54576         3.29475       -14.71300
   C       -4.65536         2.79803       -16.05733
   C       -4.04662         3.29613       -17.18621
   C       -4.22873         2.76308       -18.47682
   N       -4.31899         2.35892       -19.54825
   C       -3.26970         4.47002       -17.22361
   N       -2.67658         5.44825       -17.32991
   C       -5.71212         1.78618       -16.06109
   C       -6.38180         1.83007       -14.81231
   C       -5.70191         2.80747       -13.93971
   O       -5.98871         3.09441       -12.79046
   C       -7.45250         1.02109       -14.52216
   C       -7.86323         0.10525       -15.49655
   C       -7.17907         0.06015       -16.73328
   C       -6.10872         0.89460       -17.03689
   S       -7.84575        -1.15045       -17.78525
   C       -9.01533        -1.57457       -16.55948
   C       -8.91591        -0.84796       -15.42286
  Br      -10.25140        -2.94190       -16.90415
   H       -4.07388         2.85082        -9.22254
   H       -6.91275        -0.39816       -11.76855
   H       -2.20937         2.43248       -11.27342
   H       -9.87896         1.16894        -7.38977
   H      -10.90095         2.60154        -3.40781
   H       -9.43285         4.59294        -2.92027
   H       -7.55175         6.05363        -3.74355
   H       -6.31721         4.76269        -6.22128
   H       -5.99810         7.81602        -2.89371
   H       -6.99521         8.18484        -4.30535
   H       -6.29477        10.23672        -2.99499
   H       -5.78104        10.27995        -4.68549
   H       -4.02647         9.28241        -2.40162
   H       -3.94059        10.92481        -3.04046
   H       -3.13327        10.19444        -5.16379
   H       -1.93676         8.56677        -3.20869
   H       -1.65953         6.82688        -7.44492
   H       -0.90972         9.26503        -5.76494
   H        1.03288         9.35778        -7.11979
   H        2.45990         8.83063        -9.11685
   H        2.37930         7.63038       -11.39094
   H        1.74470         6.22413       -13.30578
   H        0.42245         4.85793       -15.05424
   H       -1.89629         3.81404       -15.42961
   H       -3.79458         4.28829       -13.04892
   H       -7.96348         1.08462       -13.57462
   H       -5.61622         0.82202       -17.99229
   H       -9.53899        -0.98062       -14.55717
*
