# ORCA input file
# SCF done       -176.061249583099          0.000649383203
! CAM-B3LYP def2-SVP def2/J RIJCOSX Grid4 TightSCF
%maxcore 5000
%tddft
    Mode sTDDFT
    Ethresh 5.0
    maxcore 5000
end

%pal
  nprocs 6
  end
* xyz 0 1
   C      -16.47588        -3.62299         1.76104
   C      -17.25379        -2.73779         1.06674
   F      -18.56129        -2.63060         1.34218
   C      -16.69462        -1.93126         0.05776
   F      -17.47909        -1.07122        -0.60905
   C      -15.36361        -2.01996        -0.24428
   C      -14.53766        -2.92160         0.45237
   C      -15.10204        -3.73888         1.47355
   C      -14.29128        -4.65446         2.18573
   C      -12.95916        -4.75036         1.88480
   C      -12.40325        -3.92800         0.86161
   C      -13.15939        -3.03499         0.15905
   C      -10.97272        -4.23285         0.73868
   O      -10.16474        -3.72256        -0.03717
   C      -10.68746        -5.27265         1.72578
   C      -11.90012        -5.59289         2.43685
   C      -12.05289        -6.51409         3.44461
   C      -11.00732        -7.31058         3.95000
   N      -10.18367        -7.97774         4.39266
   C      -13.27237        -6.77667         4.09770
   N      -14.23867        -7.03267         4.66350
   C       -9.42361        -5.80379         1.86485
   N       -8.42968        -5.36321         1.08383
   C       -7.14347        -5.78230         1.06756
   S       -6.57417        -7.02603         2.14028
   C       -5.00241        -6.89382         1.41648
   N       -3.98324        -7.71940         1.89652
   O       -2.88313        -7.61825         1.37783
   O       -4.27008        -8.48319         2.80421
   C       -4.93150        -5.95699         0.41925
   C       -6.15423        -5.29782         0.19724
   C       -6.38324        -4.26186        -0.77450
   C       -5.50609        -3.90115        -1.73103
   C       -5.77766        -2.85374        -2.67020
   C       -5.01040        -2.49384        -3.71231
   C       -3.70817        -3.12540        -4.08698
   C       -5.44173        -1.35912        -4.61337
   N       -4.53991        -0.23308        -4.51038
   C       -3.45737        -0.09433        -5.30645
   C       -2.37779         0.68657        -5.02717
   C       -1.29872         0.83515        -5.91388
   C       -0.16208         1.56061        -5.66194
   C        0.96089         1.70300        -6.50891
   C        1.96559         2.46270        -5.98792
   C        1.69229         2.97114        -4.70059
   S        0.11062         2.45252        -4.16683
   C        2.51458         3.76214        -3.91532
   C        3.80836         4.22744        -4.22265
   C        4.38660         4.97066        -3.23413
   C        3.57553         5.14679        -2.09182
   S        2.03433         4.33380        -2.33205
   C        3.78884         5.89571        -0.95305
   C        4.99380         6.45313        -0.50746
   S        4.91602         7.87552         0.50021
   C        6.63831         8.02755         0.59391
   C        7.26038         6.97047        -0.08443
   C        6.33837         6.06578        -0.68890
   C        6.82772         4.87948        -1.25964
   C        8.17468         4.62883        -1.32066
   C        8.67280         3.35275        -1.92462
   C        9.09938         5.57593        -0.80130
   C       10.56976         5.31049        -0.89736
   C        8.64094         6.70956        -0.18502
   C        7.26123         9.10345         1.29174
   C        6.61404        10.06771         1.95311
   H      -16.92054        -4.23381         2.53110
   H      -14.95078        -1.39469        -1.02045
   H      -14.74853        -5.25867         2.95222
   H      -12.71512        -2.42418        -0.61216
   H       -9.19040        -6.57765         2.58367
   H       -8.72751        -4.62657         0.41772
   H       -4.01610        -5.76287        -0.10779
   H       -7.33382        -3.74681        -0.72806
   H       -4.56482        -4.42111        -1.81414
   H       -6.71182        -2.32709        -2.51469
   H       -3.28020        -3.69994        -3.27258
   H       -2.98741        -2.36382        -4.38522
   H       -3.85317        -3.79356        -4.93721
   H       -6.44813        -1.02458        -4.34694
   H       -5.44793        -1.68955        -5.65629
   H       -4.47917         0.18891        -3.59354
   H       -3.51242        -0.62136        -6.25053
   H       -2.32670         1.20780        -4.08049
   H       -1.35163         0.32296        -6.86627
   H        0.99265         1.23529        -7.47743
   H        2.89044         2.67037        -6.49526
   H        4.28064         4.01326        -5.16473
   H        5.34749         5.44438        -3.32269
   H        2.91362         6.12621        -0.35824
   H        6.12901         4.14271        -1.62488
   H        9.32767         3.55661        -2.77127
   H        7.84203         2.74192        -2.26878
   H        9.24459         2.78013        -1.19505
   H       10.87169         5.19220        -1.93743
   H       10.82931         4.39258        -0.37081
   H       11.13764         6.12951        -0.46350
   H        9.34378         7.40603         0.24721
   H        8.34288         9.10802         1.26311
   H        5.53792        10.08982         2.00257
   H        7.14188        10.85301         2.46332
*
