# ORCA input file
# SCF done       -141.975977965030          0.000399402309
! CAM-B3LYP def2-SVP def2/J RIJCOSX Grid4 TightSCF
%maxcore 5000
%tddft
    Mode sTDDFT
    Ethresh 5.0
    maxcore 5000
end

%pal
  nprocs 6
  end
* xyz 0 1
   C        7.64954         2.42691        -6.67630
   C        7.96608         2.29470        -5.38129
   C        7.75783         3.24420        -4.32518
   C        8.18020         2.83048        -3.11082
   C        8.75535         1.52813        -3.09997
   S        8.73703         0.84564        -4.71527
   C        9.26680         0.85140        -2.02060
   C        9.33615         1.28873        -0.67306
   C        9.90360         0.38860         0.16811
   C       10.32302        -0.81980        -0.45433
   S        9.95530        -0.75788        -2.17027
   C       10.91121        -1.87152         0.19280
   C       11.38831        -3.07536        -0.35769
   S       11.52480        -3.31823        -2.08032
   C       12.33815        -4.81413        -1.83889
   C       12.50877        -5.13031        -0.52819
   C       13.17269        -6.38093        -0.05434
   C       11.94191        -4.15424         0.34280
   C       11.93734        -4.31118         1.77007
   C       10.96393        -3.89624         2.60833
   C       11.02070        -4.06092         4.02547
   C       10.01938        -3.66874         4.84106
   C        9.95739        -3.74369         6.27601
   C       10.59048        -4.57563         7.11810
   C       11.51967        -5.67792         6.72002
   C       10.39346        -4.41520         8.60775
   N       11.58279        -3.87125         9.22345
   C       12.45063        -4.57868         9.96008
   C       13.63111        -4.08924        10.42183
   C       14.52450        -4.79245        11.26733
   S       15.93755        -3.99455        11.88651
   C       16.44205        -5.39569        12.79561
   C       15.55139        -6.43417        12.60139
   C       14.48330        -6.09606        11.75083
   O       13.45949        -6.92975        11.39516
   C       13.36592        -8.22932        11.69041
   O       12.39974        -8.83728        11.31242
   C       14.44439        -8.95622        12.48033
   O       14.40360       -10.14611        12.62135
   S       15.76319        -8.05419        13.25300
   C       17.61201        -5.35763        13.60271
   S       18.90113        -4.21197        13.30058
   C       19.86503        -4.76080        14.61090
   C       19.23857        -5.78837        15.26873
   C       17.96737        -6.11559        14.69393
   O       17.36027        -7.09341        15.40214
   C       18.22944        -7.40224        16.40253
   N       17.83821        -8.40639        17.32469
   O       18.64224        -8.67864        18.19614
   O       16.74599        -8.90920        17.18727
   C       19.37765        -6.66136        16.38444
   H        7.18130         3.32523        -7.03811
   H        7.84998         1.64882        -7.38959
   H        7.29931         4.19614        -4.52682
   H        8.10220         3.41420        -2.21058
   H        8.96497         2.25115        -0.36939
   H       10.04183         0.54339         1.22420
   H       11.05974        -1.75179         1.25826
   H       12.64477        -5.38309        -2.69463
   H       13.47604        -6.99110        -0.90089
   H       12.49286        -6.95918         0.57006
   H       14.05705        -6.14287         0.53643
   H       12.77523        -4.85994         2.18350
   H       10.06583        -3.44614         2.20701
   H       11.93265        -4.47619         4.42643
   H        9.16051        -3.19322         4.38072
   H        9.26083        -3.03802         6.71683
   H       12.54582        -5.31659         6.64090
   H       11.22858        -6.09532         5.75910
   H       11.50707        -6.47090         7.46495
   H       10.18322        -5.38121         9.07343
   H        9.55519        -3.74002         8.81016
   H       11.86191        -2.95044         8.91608
   H       12.13588        -5.57998        10.21097
   H       13.92422        -3.07985        10.16829
   H       20.80835        -4.29892        14.81442
   H       20.18876        -6.73789        17.07831
*
