# ORCA input file
# SCF done       -161.613971190375          0.000708442771
! CAM-B3LYP def2-SVP def2/J RIJCOSX Grid4 TightSCF
%maxcore 5000
%tddft
    Mode sTDDFT
    Ethresh 5.0
    maxcore 5000
end

%pal
  nprocs 6
  end
* xyz 0 1
   C       -4.28231       -10.06455       -12.94008
   C       -5.12448       -10.51835       -12.00214
   C       -6.54846       -10.66855       -12.09816
   C       -7.13706       -11.15035       -10.98162
   C       -6.23803       -11.42113        -9.91251
   S       -4.59488       -11.03603       -10.39347
   C       -6.54632       -11.90258        -8.66434
   C       -7.82284       -12.23671        -8.14703
   C       -7.80124       -12.66946        -6.86034
   C       -6.51088       -12.70658        -6.26681
   S       -5.31668       -12.17792        -7.44292
   C       -6.25514       -13.06437        -4.96970
   C       -5.01830       -13.09932        -4.30376
   C       -3.72476       -12.89292        -4.77547
   C       -2.77533       -12.98068        -3.77221
   C       -3.32340       -13.25242        -2.51613
   S       -5.02696       -13.42420        -2.57017
   C       -2.28487       -13.27131        -1.55925
   C       -1.07248       -13.01970        -2.19172
   C       -1.27373       -12.83497        -3.67785
   C       -0.56312       -13.93330        -4.47419
   C       -0.81757       -11.44979        -4.14109
   C        0.00201       -12.97537        -1.30588
   C       -0.40205       -13.18337        -0.00206
   S       -2.11963       -13.46242         0.14623
   N        0.44078       -13.13511         1.07954
   C        0.15854       -13.20488         2.40267
   S       -1.36503       -13.74841         3.01302
   C       -0.77713       -13.52287         4.63475
   N       -1.64015       -13.81838         5.68044
   O       -2.75993       -14.21049         5.37996
   O       -1.22972       -13.66987         6.82181
   C        0.51671       -13.06924         4.68556
   C        1.08106       -12.88345         3.41450
   C        2.37486       -12.31081         3.14068
   C        3.46351       -12.29153         3.93792
   C        3.70028       -13.00881         5.14686
   S        4.87245       -12.35668         6.28315
   C        3.24648       -14.21389         5.62939
   S        2.18264       -15.46338         5.06598
   C        2.55879       -16.34800         6.54975
   N        3.37387       -15.80068         7.35731
   C        3.80363       -14.59964         6.88753
   C        4.70619       -13.68299         7.40424
   C        5.39199       -13.74346         8.63810
   C        6.24876       -12.78553         9.06620
   C        6.93338       -12.78755        10.30651
   S        6.76397       -14.10546        11.43064
   C        7.77624       -11.80687        10.80782
   C        8.08847       -10.54538        10.06668
   C        7.01556        -9.47651        10.31984
   N        7.44084        -8.21673         9.73424
   C        8.25582       -12.10377        12.10119
   C        9.18890       -11.21604        12.86165
   C       10.66047       -11.60735        12.59701
   N       11.63669       -10.76977        13.25939
   C        7.81234       -13.32532        12.57471
   C        8.12118       -13.95026        13.82966
   C        7.66991       -15.14197        14.21660
   H       -4.64855        -9.75869       -13.90404
   H       -3.22512        -9.98994       -12.76337
   H       -7.06665       -10.40621       -13.00344
   H       -8.19386       -11.32377       -10.87992
   H       -8.71576       -12.14194        -8.73835
   H       -8.67392       -12.96168        -6.30277
   H       -7.11912       -13.32792        -4.37250
   H       -3.50612       -12.69375        -5.80753
   H       -0.88731       -14.91441        -4.13510
   H        0.51330       -13.85568        -4.34155
   H       -0.79611       -13.83491        -5.53129
   H       -1.32602       -10.67520        -3.57183
   H       -1.04950       -11.31628        -5.19453
   H        0.25506       -11.34101        -4.00013
   H        1.02493       -12.78944        -1.57981
   H        1.40303       -12.91025         0.85578
   H        1.00051       -12.82359         5.61245
   H        2.45157       -11.76365         2.20794
   H        4.28802       -11.65621         3.63872
   H        2.09617       -17.29971         6.72065
   H        5.18073       -14.61148         9.24744
   H        6.42278       -11.93322         8.42138
   H        8.15062       -10.74263         8.99475
   H        9.05124       -10.14470        10.38176
   H        6.90521        -9.32048        11.39724
   H        6.04745        -9.84107         9.93589
   H        7.51306        -8.30579         8.72549
   H        6.76527        -7.48685         9.93176
   H        8.98758       -11.28668        13.93311
   H        9.03697       -10.17669        12.56430
   H       10.85775       -11.56358        11.52252
   H       10.82315       -12.63768        12.92530
   H       11.54531        -9.80632        12.95468
   H       11.50204       -10.79069        14.26480
   H        8.77463       -13.38832        14.48316
   H        7.02268       -15.72967        13.58712
   H        7.93486       -15.56306        15.17001
*
