# ORCA input file
# SCF done       -273.318734660325          0.000595974698
! CAM-B3LYP def2-SVP def2/J RIJCOSX Grid4 TightSCF
%maxcore 5000
%tddft
    Mode sTDDFT
    Ethresh 5.0
    maxcore 5000
end

%pal
  nprocs 6
  end
* xyz 0 1
   C        9.25181         5.95679        -1.87641
   C        9.40234         5.87129        -3.35707
   O        9.75086         4.89411        -3.98231
   C        8.98929         7.19320        -3.86385
   C        8.73255         8.04435        -2.78830
   C        9.04659         7.35069        -1.54336
   C        9.35152         7.95656        -0.35326
   C        9.96427         7.28116         0.72325
   N       10.51887         6.79749         1.60414
   C        9.16367         9.32618        -0.08350
   N        8.99868        10.42287         0.21416
   C        8.29134         9.35624        -3.00444
   C        8.13261         9.79281        -4.29361
   C        8.40790         8.96581        -5.40480
   C        8.84310         7.62441        -5.19660
   C        9.11221         6.80144        -6.30916
   C        8.96339         7.29060        -7.57754
   C        8.53970         8.61263        -7.78845
   C        8.26585         9.43158        -6.72764
   C        9.21559         4.81669        -1.13849
   C        8.73375         4.63708         0.18336
   C        7.85116         5.41487         0.89100
   C        7.56133         4.92284         2.17831
   C        8.22831         3.69621         2.44221
   S        9.20602         3.20908         1.08474
   C        8.12778         3.02962         3.65131
   C        8.87291         1.79682         3.93091
   C        9.64096         1.67956         5.08720
   C       10.34011         0.51794         5.34808
   C       10.29231        -0.55888         4.47043
   C        9.52927        -0.43643         3.31547
   C        8.83162         0.72414         3.04425
   C       11.06639        -1.81019         4.74906
   C        7.27735         3.60856         4.61551
   C        6.59240         4.82330         4.34371
   C        6.73469         5.51384         3.15428
   C        6.11317         6.82456         2.93166
   C        6.89398         7.90525         2.52874
   C        6.32491         9.14748         2.32482
   C        4.96362         9.34558         2.51831
   C        4.18850         8.26693         2.93178
   C        4.75105         7.02356         3.13975
   C        4.34142        10.69159         2.31118
   S        5.61672         5.32791         5.70147
   C        6.13613         3.93687         6.62200
   C        6.98680         3.12714         5.90692
   C        5.71000         3.74261         7.96976
   C        4.75311         4.58439         8.57202
   C        4.33734         4.42900         9.93604
   N        3.40583         5.26425        10.44110
   C        2.90687         6.19296         9.69372
   C        3.32449         6.35187         8.34580
   N        4.21103         5.56885         7.82564
   F        2.80879         7.30900         7.57853
   F        1.98847         6.99673        10.22302
   C        4.87497         3.43965        10.78385
   C        5.82726         2.58191        10.18584
   C        6.23128         2.72581         8.80261
   N        7.13729         1.80779         8.46038
   S        7.44363         0.86575         9.72058
   N        6.45552         1.56200        10.77396
   C        4.47648         3.32498        12.14914
   C        5.02033         2.47920        13.08748
   C        4.41343         2.56934        14.35453
   C        3.37758         3.54306        14.36824
   S        3.18412         4.30053        12.80596
   C        2.66311         3.85460        15.50815
   C        1.51199         4.76536        15.53021
   C        0.43572         4.53334        14.67868
   C       -0.71864         5.28164        14.79274
   C       -0.83113         6.28502        15.74801
   C        0.26456         6.54705        16.56202
   C        1.42069         5.79817        16.45927
   C       -2.11488         7.03123        15.92481
   C        3.00901         3.14951        16.67824
   C        4.01731         2.14990        16.65761
   C        4.73360         1.83454        15.51546
   C        5.75481         0.78212        15.49987
   C        5.74519        -0.20645        14.51900
   C        6.70942        -1.19548        14.51212
   C        7.70928        -1.22662        15.47604
   C        7.71317        -0.24078        16.45674
   C        6.75002         0.74754        16.47409
   C        8.74854        -2.30476        15.48056
   S        4.13301         1.34711        18.20148
   C        2.81667         2.31428        18.84636
   C        2.36974         3.23002        17.92755
   C        2.38742         2.12377        20.18145
   C        1.27513         2.60714        20.79838
   C        1.24813         2.64010        22.28894
   O        1.98388         2.02415        23.02834
   C        0.19339         3.60992        22.63461
   C       -0.45805         4.02085        21.47145
   C        0.08649         3.28977        20.32991
   C       -0.55384         3.11033        19.13083
   C       -0.15855         2.15472        18.17078
   N        0.09037         1.35593        17.38551
   C       -1.70580         3.81184        18.72404
   N       -2.61459         4.38278        18.31506
   C       -1.48727         4.96971        21.52887
   C       -1.84441         5.48108        22.74914
   C       -1.21324         5.07736        23.94617
   C       -0.16145         4.11655        23.89969
   C        0.47037         3.72014        25.09605
   C        0.07372         4.25291        26.29143
   C       -0.96373         5.19783        26.34345
   C       -1.59325         5.60180        25.19823
   H        8.07024        10.00769        -2.17450
   H        7.79038        10.80076        -4.47905
   H        9.43735         5.78800        -6.13461
   H        9.17240         6.66077        -8.42928
   H        8.43110         8.97873        -8.79868
   H        7.93955        10.44916        -6.88737
   H        9.54179         3.91970        -1.65544
   H        7.37647         6.28962         0.48273
   H        9.70770         2.51416         5.76916
   H       10.93530         0.44549         6.24733
   H        9.47877        -1.26250         2.62071
   H        8.22908         0.79221         2.15054
   H       11.18224        -1.96594         5.81921
   H       12.06191        -1.73537         4.31005
   H       10.57329        -2.67712         4.31543
   H        7.96032         7.77491         2.41200
   H        6.95039         9.97248         2.01406
   H        3.12934         8.40596         3.09372
   H        4.13134         6.19492         3.44796
   H        5.02939        11.36374         1.80483
   H        4.07633        11.13083         3.27287
   H        3.42952        10.60767         1.72243
   H        7.37849         2.21162         6.30865
   H        5.84528         1.82993        12.86203
   H        0.49644         3.73724        13.95215
   H       -1.55478         5.07312        14.14156
   H        0.20652         7.34044        17.29426
   H        2.26721         6.02083        17.09452
   H       -2.64144         7.13106        14.97876
   H       -1.94046         8.02002        16.34263
   H       -2.75564         6.47752        16.61271
   H        4.96206        -0.21205        13.77560
   H        6.68300        -1.95781        13.74646
   H        8.48338        -0.24840        17.21458
   H        6.78075         1.51477        17.23359
   H        8.78114        -2.82019        14.52391
   H        8.52121        -3.03719        16.25556
   H        9.73233        -1.89096        15.69334
   H        1.61959         3.96718        18.14456
   H        3.06651         1.57693        20.82834
   H       -1.98229         5.30181        20.63084
   H       -2.63312         6.21706        22.81059
   H        1.26598         2.99389        25.04321
   H        0.55790         3.94919        27.20750
   H       -1.26104         5.60500        27.29855
   H       -2.39190         6.32857        25.23590
*
