# ORCA input file
# SCF done       -273.077021881621          0.000672593603
! CAM-B3LYP def2-SVP def2/J RIJCOSX Grid4 TightSCF
%maxcore 5000
%tddft
    Mode sTDDFT
    Ethresh 5.0
    maxcore 5000
end

%pal
  nprocs 6
  end
* xyz 0 1
   C       -4.71819       -28.99700        -3.91567
   C       -3.41953       -29.25933        -4.24998
   F       -3.07273       -30.47037        -4.70828
   C       -2.43006       -28.26505        -4.11754
   F       -1.16294       -28.55099        -4.45113
   C       -2.75329       -27.02102        -3.65351
   C       -4.08286       -26.71990        -3.29995
   C       -5.08452       -27.72441        -3.43285
   C       -6.42570       -27.44618        -3.08289
   C       -6.75379       -26.20207        -2.61183
   C       -5.74668       -25.20961        -2.47587
   C       -4.44482       -25.44544        -2.81022
   C       -6.34014       -23.97145        -1.92905
   O       -5.73772       -22.93452        -1.74199
   C       -7.75948       -24.29354        -1.66136
   C       -8.02329       -25.62793        -2.17534
   C       -9.24342       -26.23887        -2.30702
   C      -10.49719       -25.67307        -1.99037
   N      -11.56212       -25.29526        -1.78447
   C       -9.41972       -27.53566        -2.83394
   N       -9.62996       -28.58679        -3.24561
   C       -8.67648       -23.57625        -0.93803
   C       -8.61638       -22.28711        -0.37314
   C       -7.71986       -21.25332        -0.52218
   C       -8.04226       -20.10545         0.22197
   C       -7.30660       -18.89873         0.31326
   C       -6.13944       -18.64072        -0.49656
   C       -5.00724       -17.94885        -0.15482
   C       -4.07932       -17.84405        -1.20571
   C       -4.49729       -18.43306        -2.36145
   S       -6.05712       -19.15161        -2.16232
   C       -3.79050       -18.52002        -3.66533
   C       -7.78183       -17.95408         1.21891
   C       -8.95186       -18.14445         1.99448
   C       -9.69907       -19.33587         1.88933
   C       -9.22540       -20.28267         0.99278
   S       -9.93237       -21.84414         0.71407
   C      -10.89002       -19.55495         2.68710
   C      -11.07530       -19.31131         4.01820
   C      -12.36595       -19.65134         4.47212
   C      -13.17092       -20.14663         3.49350
   S      -12.33675       -20.21436         1.97552
   C      -14.58377       -20.59632         3.59338
   C       -9.24349       -17.00662         2.78044
   C       -8.34294       -15.98909         2.63464
   S       -7.08636       -16.37847         1.49408
   C       -8.39261       -14.73849         3.34679
   C       -9.43814       -14.30334         4.12365
   O       -9.16380       -13.11927         4.68823
   C       -7.93423       -12.77206         4.31087
   C       -7.38674       -13.71791         3.48134
   C       -6.08994       -13.62496         2.79927
   O       -5.90123       -14.07304         1.68161
   C       -5.02054       -12.93325         3.51336
   C       -3.88396       -12.41326         2.93702
   C       -3.00646       -11.84279         3.85918
   C       -3.44593       -11.95189         5.16096
   S       -4.98778       -12.74669         5.23863
   C       -2.78217       -11.51851         6.34523
   C       -3.12745       -11.78213         7.63972
   C       -2.23872       -11.22778         8.59036
   C       -2.31713       -11.30670         9.99805
   C       -3.27065       -12.17510        10.65142
   C       -3.66338       -13.42774        10.26408
   C       -4.56165       -14.03416        11.16213
   C       -4.86440       -13.25495        12.23645
   S       -4.02809       -11.73863        12.15910
   C       -5.74854       -13.56871        13.38801
   C       -1.38551       -10.55600        10.70404
   C       -0.35593        -9.79847        10.08822
   C       -0.24953        -9.75783         8.68041
   C       -1.20332       -10.48376         7.97357
   S       -1.32804       -10.55150         6.23574
   C        0.76627        -8.99362         7.99115
   C        1.44169        -9.32791         6.84918
   C        2.32703        -8.32608         6.40898
   C        2.32515        -7.21410         7.19450
   S        1.22604        -7.39610         8.52086
   C        3.11555        -5.96633         7.03792
   C        0.50019        -9.20895        11.04234
   C        0.17358        -9.49982        12.34186
   S       -1.27760       -10.47996        12.43726
   C        0.84189        -9.01208        13.49430
   C        0.76754        -9.46956        14.77176
   C        1.13524        -8.57848        15.90584
   O        1.76197        -7.54682        15.84799
   C        0.50940        -9.19728        17.09435
   C        0.43462        -8.71886        18.37059
   C       -0.24436        -9.47773        19.35036
   C       -0.83850       -10.72104        18.98578
   C       -1.51906       -11.46897        19.96759
   C       -1.60340       -11.00658        21.25066
   C       -1.01438        -9.77785        21.61045
   C       -0.34869        -9.02863        20.68135
   F       -1.11400        -9.34851        22.87596
   F       -2.25019       -11.71987        22.18224
   C       -0.73814       -11.19566        17.65815
   C       -0.06926       -10.44666        16.72786
   C        0.23146       -10.69761        15.32228
   C        0.26414       -11.92752        14.72102
   C        0.88768       -12.15574        13.47498
   N        1.44971       -12.38701        12.50134
   C       -0.23691       -13.10223        15.31490
   N       -0.65898       -14.07740        15.74929
   H       -5.46384       -29.76910        -4.02391
   H       -1.98412       -26.27079        -3.55717
   H       -7.15735       -28.23012        -3.19018
   H       -3.70134       -24.67098        -2.69783
   H       -9.60889       -24.08556        -0.72102
   H       -6.84487       -21.34702        -1.13669
   H       -4.82649       -17.55911         0.83008
   H       -3.13189       -17.34430        -1.10922
   H       -4.38628       -18.06767        -4.45781
   H       -3.61503       -19.56125        -3.93535
   H       -2.83445       -18.00546        -3.60634
   H      -10.29707       -18.94152         4.66217
   H      -12.68306       -19.53505         5.49360
   H      -14.68372       -21.62511         3.24938
   H      -15.23011       -19.97508         2.97328
   H      -14.92266       -20.53437         4.62476
   H      -10.09961       -16.94336         3.42499
   H      -10.39929       -14.73130         4.32465
   H       -7.56510       -11.82316         4.64679
   H       -3.72039       -12.44565         1.87499
   H       -2.07239       -11.37578         3.60214
   H       -4.01078       -12.33743         7.89769
   H       -3.27952       -13.92160         9.38961
   H       -4.96535       -15.02052        11.01780
   H       -6.35568       -14.44292        13.16480
   H       -6.40211       -12.72808        13.61526
   H       -5.15247       -13.77874        14.27717
   H        1.34032       -10.28039         6.36157
   H        2.94527        -8.42695         5.53490
   H        3.73307        -6.02771         6.14522
   H        3.76104        -5.80826         7.90173
   H        2.45780        -5.10161         6.95295
   H        1.36716        -8.62590        10.79136
   H        1.42103        -8.10477        13.35286
   H        0.88745        -7.77413        18.63037
   H       -1.97213       -12.41346        19.70984
   H        0.09673        -8.09034        20.97269
   H       -1.20050       -12.13641        17.40448
*
