# ORCA input file
# SCF done       -283.811293292435          0.000611137325
! CAM-B3LYP def2-SVP def2/J RIJCOSX Grid4 TightSCF
%maxcore 5000
%tddft
    Mode sTDDFT
    Ethresh 5.0
    maxcore 5000
end

%pal
  nprocs 6
  end
* xyz 0 1
   C      -12.17279         1.58670        -1.16602
   C      -13.32878         1.74056        -1.87870
   F      -13.98939         2.90507        -1.84692
   C      -13.84082         0.68009        -2.65337
   F      -14.97595         0.85961        -3.34178
   C      -13.19003        -0.52075        -2.70331
   C      -11.99816        -0.71129        -1.97754
   C      -11.47793         0.36072        -1.19564
   C      -10.28376         0.19306        -0.45778
   C       -9.63268        -1.01222        -0.49481
   C      -10.16479        -2.07832        -1.27215
   C      -11.31065        -1.94486        -2.00172
   C       -9.30303        -3.26508        -1.12465
   O       -9.45326        -4.33558        -1.67906
   C       -8.24319        -2.88136        -0.17466
   C       -8.41132        -1.47674         0.15839
   C       -7.57903        -0.69790         0.91896
   C       -6.37363        -1.11858         1.51998
   N       -5.37909        -1.37536         2.03417
   C       -7.80912         0.66743         1.19288
   N       -7.93888         1.77734         1.45525
   C       -7.30264        -3.71649         0.36059
   C       -7.07727        -5.09397         0.15855
   C       -6.10668        -5.77713         0.87043
   C       -6.03979        -7.14751         0.58199
   C       -5.22197        -8.12768         1.19896
   C       -4.17672        -7.74828         2.12212
   C       -3.33027        -6.67780         2.02726
   C       -2.41181        -6.61192         3.09549
   C       -2.54455        -7.61377         4.01486
   S       -3.82686        -8.67980         3.55307
   C       -1.76220        -7.84696         5.25398
  Cl       -1.22756        -5.36770         3.21364
   C       -5.48657        -9.44522         0.85607
   C       -6.44813        -9.82245        -0.12093
   C       -7.22343        -8.84183        -0.77219
   C       -7.00677        -7.51880        -0.38957
   S       -7.93728        -6.15387        -0.93715
   C       -8.23160        -9.16329        -1.76057
   C       -8.56839        -8.44068        -2.87065
   C       -9.64289        -9.00762        -3.58771
   C      -10.15068       -10.14901        -3.03790
   S       -9.27469       -10.55235        -1.60161
   C      -11.27108       -10.99670        -3.51750
  Cl      -10.25344        -8.30351        -5.03391
   C       -6.47372       -11.22230        -0.31458
   C       -5.61699       -11.90957         0.49674
   S       -4.68473       -10.83903         1.52255
   C       -5.47563       -13.33277         0.61357
   C       -4.76556       -13.91273         1.64925
   C       -4.69994       -15.29320         1.82180
   F       -4.00177       -15.72262         2.89039
   C       -5.30495       -16.22593         0.98922
   C       -5.99747       -15.65762        -0.11703
   C       -6.09379       -14.23049        -0.29855
   N       -6.79595       -13.91726        -1.38534
   S       -7.28391       -15.26433        -2.10700
   N       -6.63718       -16.31710        -1.08150
   C       -5.27469       -17.64408         1.22020
   C       -5.74511       -18.61809         0.38323
   C       -5.62273       -19.92570         0.90159
   C       -5.98327       -21.13796         0.27395
   C       -6.43235       -21.15372        -1.10167
   C       -5.95964       -20.40687        -2.14381
   C       -6.63953       -20.66747        -3.35213
   C       -7.62919       -21.60227        -3.25396
   S       -7.72940       -22.19122        -1.62912
   C       -8.53277       -22.11644        -4.31345
  Cl       -6.24304       -19.85706        -4.81953
   C       -5.86940       -22.28851         1.04432
   C       -5.36094       -22.28290         2.37102
   C       -4.91156       -21.08170         2.96595
   C       -5.08102       -19.92457         2.21262
   S       -4.65058       -18.31688         2.71192
   C       -4.27297       -21.05591         4.26274
   C       -4.33565       -20.08690         5.22637
   C       -3.52338       -20.37424         6.34183
   C       -2.82072       -21.54325         6.24939
   S       -3.17389       -22.32378         4.75110
   C       -1.87375       -22.13164         7.22917
  Cl       -3.42334       -19.33955         7.71189
   C       -5.37841       -23.56858         2.94204
   C       -5.82399       -24.55287         2.09390
   S       -6.29170       -23.89640         0.53810
   C       -6.02157       -25.92928         2.35666
   C       -5.52611       -26.68240         3.37765
   C       -6.21139       -27.95679         3.73189
   O       -7.01708       -28.55873         3.06212
   C       -5.74150       -28.28051         5.09553
   C       -6.15753       -29.27497         5.93265
   C       -5.58738       -29.37085         7.22217
   C       -4.59636       -28.42732         7.62091
   C       -4.03969       -28.52269         8.91214
   C       -4.44486       -29.50975         9.76598
   C       -5.42324       -30.44366         9.36992
   C       -5.98311       -30.37700         8.12486
   F       -5.80227       -31.40000        10.22824
   F       -3.91404       -29.59834        10.99261
   C       -4.17784       -27.41413         6.72821
   C       -4.73828       -27.34601         5.48107
   C       -4.48517       -26.44905         4.35593
   C       -3.33820       -25.72183         4.16976
   C       -3.00659       -25.10572         2.94508
   N       -2.68373       -24.63818         1.94847
   C       -2.34474       -25.55845         5.15360
   N       -1.53168       -25.36382         5.94108
   H      -11.79440         2.40902        -0.57903
   H      -13.59482        -1.32297        -3.30025
   H       -9.91913         1.02385         0.12405
   H      -11.68881        -2.77105        -2.58446
   H       -6.62182        -3.28505         1.08475
   H       -5.49843        -5.29150         1.61219
   H       -3.32237        -5.98684         1.20474
   H       -0.96258        -7.11407         5.32554
   H       -1.33051        -8.84689         5.25179
   H       -2.40008        -7.75979         6.13326
   H       -8.05698        -7.55358        -3.19371
   H      -11.69374       -10.56568        -4.42152
   H      -12.05099       -11.06726        -2.75999
   H      -10.92303       -12.00606        -3.73533
   H       -7.10216       -11.72657        -1.02309
   H       -4.26106       -13.29180         2.37398
   H       -6.19573       -18.38643        -0.56234
   H       -5.12938       -19.72954        -2.07236
   H       -8.36045       -21.57267        -5.23892
   H       -9.57501       -21.99954        -4.01989
   H       -8.35144       -23.17665        -4.48862
   H       -4.96160       -19.21614         5.17041
   H       -0.96746       -21.52786         7.28613
   H       -1.60072       -23.14324         6.93810
   H       -2.32370       -22.14918         8.22134
   H       -5.13815       -23.75763         3.97179
   H       -6.72356       -26.44187         1.70633
   H       -6.91273       -29.97848         5.61690
   H       -3.28703       -27.81821         9.23003
   H       -6.73107       -31.09914         7.83720
   H       -3.43092       -26.70905         7.05671
*
