# ORCA input file
# SCF done       -277.532165851156          0.000409904392
! CAM-B3LYP def2-SVP def2/J RIJCOSX Grid4 TightSCF
%maxcore 5000
%tddft
    Mode sTDDFT
    Ethresh 5.0
    maxcore 5000
end

%pal
  nprocs 6
  end
* xyz 0 1
   C       -7.05571        -2.84932        13.86903
   C       -6.53967        -3.23508        15.07428
   F       -6.75429        -2.49195        16.16742
   C       -5.77799        -4.41612        15.18405
   F       -5.28478        -4.76931        16.37830
   C       -5.54391        -5.19598        14.08632
   C       -6.06448        -4.82647        12.83091
   C       -6.83331        -3.63177        12.71788
   C       -7.36781        -3.24125        11.46873
   C       -7.14611        -4.02454        10.36616
   C       -6.38257        -5.21833        10.49158
   C       -5.84704        -5.61819        11.68177
   C       -6.31008        -5.88937         9.18166
   O       -5.71620        -6.92002         8.93504
   C       -7.10182        -5.05970         8.25509
   C       -7.57438        -3.88907         8.97592
   C       -8.28180        -2.83053         8.46918
   C       -8.68961        -2.67080         7.12770
   N       -9.05766        -2.45642         6.06092
   C       -8.69978        -1.72189         9.23656
   N       -9.07073        -0.79525         9.80320
   C       -7.39643        -5.36437         6.95576
   C       -7.05036        -6.48788         6.17606
   C       -7.55217        -6.65779         4.89807
   C       -7.16164        -7.85451         4.28027
   C       -7.50658        -8.32772         2.99025
   C       -8.41125        -7.62153         2.11050
   C       -8.34833        -7.52932         0.74757
   C       -9.42931        -6.81015         0.19697
   C      -10.33531        -6.35944         1.11438
   S       -9.84058        -6.81801         2.70645
   C      -11.57539        -5.57570         0.89239
  Cl       -9.58218        -6.53631        -1.49514
   C       -6.94741        -9.54248         2.61612
   C       -6.06291       -10.28868         3.44203
   C       -5.70605        -9.80563         4.71816
   C       -6.28817        -8.60308         5.11539
   S       -6.02405        -7.82356         6.64726
   C       -4.77838       -10.50404         5.58282
   C       -4.81227       -10.61261         6.94493
   C       -3.70594       -11.31713         7.46376
   C       -2.81154       -11.74122         6.52328
   S       -3.34650       -11.27233         4.94688
   C       -1.54425       -12.48978         6.71547
  Cl       -3.51312       -11.61016         9.14775
   C       -5.71857       -11.52665         2.85434
   C       -6.30957       -11.73548         1.63845
   S       -7.30181       -10.39300         1.13489
   C       -6.19642       -12.90918         0.84712
   N       -5.39624       -13.89296         1.13617
   C       -5.53174       -14.88461         0.25744
   C       -6.47776       -14.69367        -0.76640
   S       -7.21113       -13.15044        -0.59581
   N       -6.63653       -15.69917        -1.62559
   C       -5.84419       -16.68684        -1.33033
   S       -4.79972       -16.42851         0.08831
   C       -5.82100       -17.91475        -2.04399
   C       -6.68873       -18.28820        -3.03414
   C       -6.44941       -19.59098        -3.52425
   C       -7.19219       -20.30896        -4.48677
   C       -8.28928       -19.72830        -5.23019
   C       -9.43152       -20.34701        -5.65729
   C      -10.24289       -19.50781        -6.44832
   C       -9.73732       -18.25453        -6.64511
   S       -8.22314       -18.09209        -5.82680
   C      -10.31097       -17.13814        -7.43718
  Cl      -11.74191       -20.03463        -7.10881
   C       -6.78630       -21.61696        -4.72623
   C       -5.66552       -22.21937        -4.10031
   C       -4.93029       -21.50487        -3.13028
   C       -5.34871       -20.20505        -2.87116
   S       -4.64622       -19.14904        -1.67780
   C       -3.81336       -22.11173        -2.43827
   C       -3.72283       -23.38024        -1.93814
   C       -2.48082       -23.63232        -1.31793
   C       -1.61406       -22.57709        -1.34299
   S       -2.34412       -21.22537        -2.13884
   C       -0.23399       -22.49447        -0.80355
  Cl       -2.10712       -25.14985        -0.59415
   C       -5.40795       -23.51011        -4.61148
   C       -6.27982       -23.90603        -5.59253
   S       -7.51480       -22.69282        -5.88063
   C       -6.29193       -25.17341        -6.23288
   C       -6.95728       -25.54930        -7.35493
   C       -7.25459       -26.98994        -7.59545
   O       -6.73417       -27.93872        -7.05886
   C       -8.36613       -26.98932        -8.56988
   C       -9.10903       -28.04110        -9.02339
   C      -10.15915       -27.79707        -9.93674
   C      -10.42301       -26.46197       -10.36150
   C      -11.47915       -26.22671       -11.26472
   C      -12.23485       -27.26708       -11.72734
   C      -11.97140       -28.58703       -11.30879
   C      -10.95566       -28.84782       -10.43248
   F      -12.72903       -29.58733       -11.77811
   F      -13.23745       -27.04153       -12.58613
   C       -9.63055       -25.39339        -9.88364
   C       -8.61397       -25.65520        -9.00510
   C       -7.62712       -24.77844        -8.38383
   C       -7.21941       -23.56479        -8.86716
   C       -6.04925       -22.91554        -8.41626
   N       -5.06795       -22.40185        -8.11633
   C       -7.86214       -22.88661        -9.92212
   N       -8.36768       -22.29166       -10.76313
   H       -7.63599        -1.94224        13.80281
   H       -4.95966        -6.09728        14.18644
   H       -7.94533        -2.33263        11.41967
   H       -5.27049        -6.52850        11.74509
   H       -8.02599        -4.66453         6.41937
   H       -8.18559        -5.92100         4.43878
   H       -7.54471        -7.92008         0.15197
   H      -11.48241        -4.58072         1.32781
   H      -12.42887        -6.06601         1.35860
   H      -11.75978        -5.47646        -0.17430
   H       -5.60507       -10.23838         7.56473
   H       -0.68553       -11.84652         6.52141
   H       -1.49063       -13.33563         6.03223
   H       -1.48442       -12.85107         7.73921
   H       -5.08912       -12.26950         3.30553
   H       -7.47997       -17.64162        -3.36236
   H       -9.71682       -21.34707        -5.38845
   H       -9.85747       -17.10254        -8.42865
   H      -10.12624       -16.18495        -6.94674
   H      -11.38249       -17.28258        -7.55563
   H       -4.52302       -24.09670        -1.96282
   H        0.02039       -23.42377        -0.30021
   H       -0.14862       -21.67097        -0.09585
   H        0.48152       -22.32078        -1.60681
   H       -4.57046       -24.11235        -4.31036
   H       -5.77638       -25.96963        -5.70474
   H       -8.90037       -29.04591        -8.68890
   H      -11.69225       -25.22294       -11.59759
   H      -10.76728       -29.86341       -10.12133
   H       -9.85261       -24.39058       -10.21296
*
