# ORCA input file
# SCF done       -277.276024798342          0.000905533085
! CAM-B3LYP def2-SVP def2/J RIJCOSX Grid4 TightSCF
%maxcore 5000
%tddft
    Mode sTDDFT
    Ethresh 5.0
    maxcore 5000
end

%pal
  nprocs 6
  end
* xyz 0 1
   C        2.89713         0.81844        -0.70312
   F        3.86030         1.35576         0.07259
   C        2.13300         1.64224        -1.53022
   C        2.35587         3.12637        -1.69861
   O        2.08948         3.69162        -2.71681
   O        2.86164         3.78080        -0.65180
   C        1.14405         1.00313        -2.28437
   F        0.34402         1.70790        -3.07669
   C        0.94082        -0.36754        -2.20779
   F       -0.03315        -0.89123        -2.96066
   C        1.72262        -1.20505        -1.39651
   C        2.70770        -0.55059        -0.63871
   F        3.48402        -1.24112         0.20878
   C        1.52118        -2.63171        -1.32546
   C        2.41937        -3.57828        -0.90984
   C        1.91104        -4.89499        -0.93363
   C        2.57661        -6.08383        -0.55720
   C        3.90353        -6.05282         0.01825
   C        4.40619        -5.17184         0.93749
   C        5.73666        -5.44936         1.30392
   C        6.25968        -6.53238         0.66481
   S        5.09939        -7.24742        -0.40341
   C        7.62085        -7.11418         0.79134
   C        1.87815        -7.26853        -0.75038
   C        0.54557        -7.31187        -1.23564
   C       -0.14377        -6.11950        -1.55350
   C        0.58060        -4.93962        -1.41940
   S       -0.00904        -3.34733        -1.79157
   C       -1.52281        -6.14128        -1.98641
   C       -2.54502        -6.92459        -1.52284
   C       -3.77056        -6.68198        -2.17150
   C       -3.69422        -5.72261        -3.13515
   S       -2.08887        -5.08293        -3.25162
   C       -4.77042        -5.21293        -4.02356
   C        0.08065        -8.63639        -1.35748
   C        0.99054        -9.58329        -0.95399
   S        2.48978        -8.86938        -0.41960
   C        0.80877       -10.99906        -0.95092
   C        1.85165       -11.87181        -0.58255
   C        1.70468       -13.29835        -0.59327
   N        2.75709       -14.07137        -0.25863
   C        3.87575       -13.52009         0.08248
   C        4.01438       -12.10838         0.11576
   N        3.03177       -11.33445        -0.21033
   F        5.16094       -11.54121         0.48419
   F        4.89416       -14.31643         0.40034
   C        0.49418       -13.93379        -0.93919
   C       -0.56361       -13.06579        -1.29696
   C       -0.40757       -11.62535        -1.30726
   N       -1.53443       -11.01455        -1.67780
   S       -2.66046       -12.11524        -1.98562
   N       -1.79326       -13.42685        -1.66743
   C        0.37169       -15.35390        -0.92645
   C       -0.76582       -16.08662        -1.17294
   C       -0.57258       -17.47943        -1.10000
   C       -1.52940       -18.50171        -1.30586
   C       -2.87232       -18.18991        -1.73841
   C       -3.26997       -17.24589        -2.64645
   C       -4.66429       -17.20490        -2.83484
   C       -5.34179       -18.10713        -2.07244
   S       -4.25297       -19.04705        -1.10624
   C       -6.80696       -18.34328        -1.99962
   C       -1.09309       -19.80161        -1.07670
   C        0.24056       -20.12581        -0.72864
   C        1.20880       -19.10900        -0.59105
   C        0.76271       -17.80344        -0.74916
   S        1.74244       -16.37142        -0.56623
   C        2.59610       -19.42307        -0.31927
   C        3.35759       -20.41787        -0.86794
   C        4.68558       -20.42606        -0.39884
   C        4.94266       -19.44745         0.51195
   S        3.53622       -18.47876         0.80153
   C        6.21406       -19.15520         1.22325
   C        0.41204       -21.51838        -0.53696
   C       -0.71700       -22.25166        -0.75172
   S       -2.07058       -21.23843        -1.20360
   C       -0.88435       -23.68413        -0.64235
   C       -2.16491       -24.24457        -0.54535
   C       -2.35789       -25.60511        -0.43205
   C       -1.24678       -26.43746        -0.41007
   C        0.03495       -25.88480        -0.51355
   C        0.23078       -24.52681        -0.63333
   S        1.24759       -27.14310        -0.47710
   C        0.00598       -28.34918        -0.18642
   C        0.35701       -29.65092         0.09584
   C       -0.38376       -30.67612         0.68908
   C       -1.55290       -30.68637         1.42502
   C       -2.34285       -29.66625         2.04557
   C       -1.92864       -28.41161         2.44616
   C       -2.79384       -27.39918         2.89334
   N       -3.46083       -26.50481         3.17140
   C       -0.58405       -28.01647         2.50653
   N        0.50284       -27.66093         2.61777
   C       -3.64362       -30.25484         2.38427
   C       -3.58234       -31.63982         2.15324
   C       -2.25772       -31.97929         1.58802
   O       -1.84755       -33.07764         1.27625
   C       -4.64908       -32.46745         2.43668
   C       -5.80593       -31.89552         2.95073
   C       -5.87639       -30.52915         3.17183
   C       -4.79942       -29.69376         2.89866
   N       -1.24392       -27.81536        -0.29102
   C       -2.38857       -28.57547        -0.73774
   H        3.11997         3.22450         0.09537
   H        3.43443        -3.35962        -0.63905
   H        3.82706        -4.37838         1.37495
   H        6.28583        -4.86489         2.02063
   H        8.19215        -6.56829         1.53819
   H        8.14970        -7.06584        -0.16031
   H        7.56223        -8.16156         1.08504
   H       -2.43266        -7.61986        -0.71078
   H       -4.68073        -7.20126        -1.92835
   H       -5.71072        -5.70769        -3.79265
   H       -4.52410        -5.39519        -5.06941
   H       -4.89583        -4.13820        -3.89599
   H       -0.87968        -8.90473        -1.75425
   H       -1.71030       -15.61626        -1.36967
   H       -2.58055       -16.63125        -3.19629
   H       -5.14884       -16.52789        -3.51606
   H       -7.32815       -17.65864        -2.66435
   H       -7.17057       -18.19331        -0.98341
   H       -7.04605       -19.36617        -2.28943
   H        2.99131       -21.09096        -1.62295
   H        5.42586       -21.13265        -0.73049
   H        6.10175       -19.31988         2.29454
   H        6.50346       -18.11600         1.07562
   H        7.00635       -19.80030         0.85180
   H        1.33896       -21.94388        -0.20042
   H       -3.02148       -23.58819        -0.54627
   H       -3.35204       -26.01038        -0.33609
   H        1.22873       -24.13247        -0.72383
   H        1.38119       -29.89704        -0.15091
   H        0.02834       -31.67219         0.55137
   H       -4.57186       -33.52950         2.26175
   H       -6.65663       -32.51903         3.18142
   H       -6.78433       -30.09982         3.56853
   H       -4.87981       -28.63436         3.08360
   H       -3.19028       -28.57148         0.00201
   H       -2.09132       -29.60311        -0.93176
   H       -2.76689       -28.13310        -1.66227
*
