# ORCA input file
# SCF done       -179.603697166368          0.000390192201
! CAM-B3LYP def2-SVP def2/J RIJCOSX Grid4 TightSCF
%maxcore 5000
%tddft
    Mode sTDDFT
    Ethresh 5.0
    maxcore 5000
end

%pal
  nprocs 6
  end
* xyz 0 1
   C        0.76408         0.78343         0.71470
   C        1.56937         1.71963         1.31077
   C        2.23846         1.51394         2.53453
   N        2.78478         1.40705         3.53848
   C        1.88898         2.96041         0.72560
   N        2.19871         3.96658         0.26794
   C        0.63240        -0.60544         1.14526
   C        0.14761        -1.37589         0.04789
   C       -0.02933        -2.72614         0.14102
   C        0.26313        -3.37682         1.36079
   C        0.72752        -2.60946         2.46818
   C        0.90951        -1.21292         2.34016
   C        1.00659        -3.26967         3.68195
   C        0.84051        -4.62306         3.79703
   C        0.38640        -5.37807         2.70533
   C        0.10389        -4.76822         1.51319
   C       -0.11091        -0.48473        -1.09528
   O       -0.47933        -0.78031        -2.20834
   C        0.12114         0.89705        -0.57665
   C       -0.35361         1.94537        -1.30178
   C       -0.60369         3.28347        -0.91780
   C       -0.77690         3.83155         0.34190
   C       -1.06010         5.19147         0.28429
   C       -1.10625         5.70404        -1.02259
   S       -0.82419         4.47693        -2.18875
   C       -1.37138         7.07577        -1.04566
   C       -1.52545         7.60432         0.24796
   S       -1.34724         6.40514         1.49810
   C       -1.79513         8.97027         0.26123
   C       -1.85148         9.47812        -1.02153
   S       -1.56795         8.28006        -2.26075
   C       -2.12068        10.81514        -1.42567
   N       -2.17200        11.07269        -2.72087
   N       -2.43092        12.24861        -3.21102
   C       -2.65933        13.31715        -2.46813
   C       -2.61722        13.18792        -1.04534
   C       -2.34383        11.88339        -0.50240
   N       -2.36125        11.99269         0.80885
   O       -2.62510        13.27187         1.06784
   N       -2.78326        14.00866        -0.03019
   C       -2.94888        14.54158        -3.13269
   C       -3.19626        15.77857        -2.57174
   C       -3.44973        16.73314        -3.55370
   C       -3.39864        16.21820        -4.86129
   S       -3.02492        14.53631        -4.87749
   C       -3.66645        17.19739        -5.82083
   C       -3.91468        18.45730        -5.24531
   S       -3.82243        18.43298        -3.50523
   C       -4.18730        19.45833        -6.16884
   C       -4.15299        18.98438        -7.47017
   S       -3.78140        17.25674        -7.53068
   C       -4.38600        19.59919        -8.71909
   C       -4.59010        20.90547        -9.06374
   C       -4.83701        21.34013       -10.43237
   C       -5.21279        20.55467       -11.49052
   C       -5.45464        21.04891       -12.79026
   N       -5.66210        21.38060       -13.86949
   C       -5.46219        19.16609       -11.44663
   N       -5.70965        18.04559       -11.49723
   C       -4.69861        22.79015       -10.47341
   C       -4.49229        23.25893        -9.14592
   C       -4.46893        22.11850        -8.21504
   O       -4.35820        22.19149        -7.00853
   C       -4.34053        24.58588        -8.86290
   C       -4.38007        25.52340        -9.91881
   C       -4.57558        25.06169       -11.25263
   C       -4.73584        23.68148       -11.51315
   C       -4.60623        26.00500       -12.29990
   C       -4.45249        27.34033       -12.04394
   C       -4.26139        27.79391       -10.73015
   C       -4.22645        26.90494        -9.69020
   H       -0.38750        -3.29198        -0.70611
   H        1.25572        -0.65554         3.19667
   H        1.35980        -2.68498         4.51867
   H        1.05925        -5.11970         4.73041
   H        0.26138        -6.44502         2.81357
   H       -0.24621        -5.34405         0.66899
   H       -0.64357         1.69144        -2.31776
   H       -0.74242         3.26261         1.25275
   H       -1.94534         9.57155         1.13885
   H       -3.18915        15.95560        -1.51206
   H       -4.39598        20.48353        -5.92452
   H       -4.37548        18.88886        -9.53825
   H       -4.18946        24.91525        -7.84556
   H       -4.87722        23.36449       -12.53403
   H       -4.75544        25.65097       -13.30941
   H       -4.47749        28.05496       -12.85290
   H       -4.14148        28.85111       -10.54639
   H       -4.07937        27.24823        -8.67659
*
