# ORCA input file
# SCF done       -179.610613910736          0.000520803139
! CAM-B3LYP def2-SVP def2/J RIJCOSX Grid4 TightSCF
%maxcore 5000
%tddft
    Mode sTDDFT
    Ethresh 5.0
    maxcore 5000
end

%pal
  nprocs 6
  end
* xyz 0 1
   C       -4.29934         2.55592        -1.47425
   C       -3.57806         3.30463        -2.36683
   C       -4.12897         3.94641        -3.49111
   N       -4.53401         4.54448        -4.38396
   C       -2.18403         3.49450        -2.25729
   N       -1.04131         3.60341        -2.22916
   C       -5.63687         2.02432        -1.69238
   C       -5.83284         0.91757        -0.81302
   C       -6.98302         0.18257        -0.83444
   C       -8.00679         0.52956        -1.74476
   C       -7.82108         1.64145        -2.61722
   C       -6.61834         2.38274        -2.57715
   C       -8.85141         1.97545        -3.51974
   C      -10.00793         1.24568        -3.56350
   C      -10.18951         0.15107        -2.70493
   C       -9.21060        -0.19892        -1.81490
   C       -4.64550         0.75432         0.04654
   O       -4.42853        -0.10303         0.87026
   C       -3.78061         1.92722        -0.27134
   C       -2.81348         2.32631         0.59180
   C       -2.18406         3.60295         0.62330
   C       -0.89875         3.89305         1.01747
   C       -0.54247         5.23768         0.83241
   S        1.08292         5.82788         1.06798
   C        2.03079         4.35239         0.55533
   C       -1.59179         6.00784         0.33057
   S       -3.00866         5.03980         0.09213
   C       -1.61730         7.35573        -0.12304
   C       -0.78927         8.37681         0.38345
   C       -0.75882         9.68355        -0.20683
   N        0.06149        10.62087         0.31281
   C        0.78007        10.33704         1.34876
   C        0.71272         9.05582         1.95858
   N       -0.04363         8.12221         1.47821
   F        1.42024         8.78449         3.05109
   F        1.57502        11.28255         1.83544
   C       -1.55093        10.04181        -1.31883
   C       -2.43058         9.03904        -1.79023
   C       -2.47363         7.73132        -1.18276
   N       -3.36376         6.93618        -1.77742
   S       -4.06897         7.73205        -2.97671
   N       -3.29737         9.12892        -2.80252
   C       -1.45203        11.33225        -1.91439
   C       -2.15763        11.78905        -3.01175
   C       -1.81131        13.08133        -3.41210
   S       -2.62192        13.94954        -4.67867
   C       -4.23626        13.10011        -4.70788
   C       -0.81073        13.64362        -2.60308
   S       -0.35709        12.53627        -1.32327
   C       -0.22094        14.91677        -2.59357
   C       -0.00807        15.75362        -3.66045
   C        0.45194        17.12423        -3.58931
   C        0.43861        17.92656        -2.47701
   C        0.88472        19.26344        -2.46314
   N        1.23929        20.35325        -2.38887
   C       -0.05997        17.53895        -1.21602
   N       -0.47503        17.30436        -0.17110
   C        0.84293        17.53233        -4.93413
   C        0.57220        16.45610        -5.82737
   C        0.02983        15.31794        -5.06669
   O       -0.24560        14.21251        -5.49924
   C        0.83543        16.54517        -7.16272
   C        1.39287        17.73824        -7.67728
   C        1.66980        18.81745        -6.79018
   C        1.38546        18.69564        -5.40973
   C        2.23189        19.99917        -7.31348
   C        2.50922        20.11174        -8.64893
   C        2.23726        19.04805        -9.52141
   C        1.68962        17.88722        -9.04584
   H       -7.11022        -0.65687        -0.16717
   H       -6.50202         3.22503        -3.24170
   H       -8.70591         2.81741        -4.18053
   H      -10.78956         1.50737        -4.26083
   H      -11.10858        -0.41344        -2.75248
   H       -9.34492        -1.04071        -1.15156
   H       -2.52701         1.61522         1.35977
   H       -0.22443         3.13912         1.37951
   H        3.03306         4.70868         0.34035
   H        1.58418         3.92651        -0.33694
   H        2.07009         3.62809         1.36269
   H       -2.87999        11.16861        -3.50679
   H       -4.89096        13.74021        -5.29053
   H       -4.61779        12.99648        -3.69777
   H       -4.14556        12.13298        -5.19210
   H        0.14861        15.23049        -1.62415
   H        0.62140        15.71568        -7.82018
   H        1.61378        19.52696        -4.76149
   H        2.43934        20.81569        -6.63733
   H        2.94044        21.02125        -9.03986
   H        2.46408        19.15229       -10.57209
   H        1.47817        17.06443        -9.71329
*
