# ORCA input file
# SCF done       -251.484034088925          0.000814671372
! CAM-B3LYP def2-SVP def2/J RIJCOSX Grid4 TightSCF
%maxcore 5000
%tddft
    Mode sTDDFT
    Ethresh 5.0
    maxcore 5000
end

%pal
  nprocs 6
  end
* xyz 0 1
   C        7.13499         5.11503         3.08930
   C        6.96427         4.04845         3.93142
   C        8.02902         3.28975         4.46255
   N        8.84958         2.63939         4.93324
   C        5.72416         3.51713         4.34647
   N        4.76135         3.00652         4.70880
   C        8.41387         5.58353         2.57221
   C        8.15934         6.55174         1.56112
   C        9.16915         7.17257         0.88412
   C       10.50804         6.85534         1.20369
   C       10.77208         5.89295         2.22084
   C        9.70451         5.25993         2.89796
   C       12.11223         5.58992         2.53653
   C       13.14278         6.20701         1.88120
   C       12.88152         7.15452         0.88014
   C       11.59224         7.47090         0.54788
   C        6.70671         6.74391         1.41216
   O        6.16778         7.43572         0.57319
   C        6.08479         5.92624         2.48589
   C        4.81597         5.99212         2.98427
   C        3.68917         6.73887         2.56656
   C        3.43440         7.47597         1.43741
   C        2.16345         8.08324         1.43011
   C        1.60972         8.89357         0.41137
   C        2.27218         9.04377        -0.86171
   C        2.95033         8.09064        -1.57504
   C        3.46498         8.56835        -2.79310
   C        3.19492         9.88468        -3.01840
   S        2.27265        10.56239        -1.71895
   C        3.57816        10.72229        -4.18317
   C        0.40317         9.51395         0.71600
   C       -0.30078         9.29607         1.92717
   C        0.18267         8.37460         2.88143
   C        1.43599         7.82721         2.62340
   S        2.31484         6.75631         3.67006
   C       -0.61545         7.98894         4.02449
   C       -1.96606         7.76733         4.05807
   C       -2.42835         7.32068         5.31039
   C       -1.44116         7.20425         6.24222
   S        0.09782         7.64890         5.57749
   C       -1.55026         6.74532         7.65191
   C       -1.45660        10.10871         2.01358
   C       -1.66767        10.87045         0.90018
   S       -0.44596        10.62862        -0.32104
   C       -2.72823        11.82011         0.68283
   C       -3.02949        12.35887        -0.52642
   C       -4.10568        13.29186        -0.65870
   C       -4.46044        13.84110        -1.87746
   C       -5.51991        14.75443        -1.99668
   N       -6.38729        15.50249        -2.08767
   C       -3.78182        13.51175        -3.06151
   N       -3.22309        13.23896        -4.02786
   C       -4.78085        13.62751         0.55632
   C       -4.40626        13.06035         1.73190
   O       -3.41058        12.13813         1.81317
   C       -4.98202        13.38361         3.00945
   C       -4.53051        12.95881         4.22572
   C       -5.26622        13.48339         5.31312
   C       -5.05282        13.24458         6.68656
   C       -4.04175        12.30817         7.12790
   C       -3.72805        11.08972         6.59062
   C       -2.65485        10.45344         7.24174
   C       -2.14073        11.17864         8.27270
   S       -2.99562        12.67207         8.47331
   C       -1.01478        10.82634         9.17587
   C       -5.85011        13.96766         7.56564
   C       -6.86970        14.86052         7.13704
   C       -7.13077        15.04330         5.75738
   C       -6.28984        14.36390         4.88174
   S       -6.34822        14.46031         3.14001
   C       -8.21465        15.88289         5.30522
   C       -9.46056        16.03403         5.85479
   C      -10.27721        16.93026         5.14232
   C       -9.66722        17.47632         4.05330
   S       -8.05431        16.87200         3.87574
   C      -10.21083        18.45909         3.08161
   C       -7.49695        15.50645         8.22003
   C       -7.03434        15.10634         9.45000
   S       -5.75376        13.90526         9.29671
   C       -7.35250        15.50833        10.76766
   C       -8.34734        16.30796        11.25449
   C       -8.47946        16.65328        12.66423
   C       -7.55914        16.44192        13.65774
   C       -7.75394        16.81606        15.00475
   N       -7.84383        17.08609        16.11698
   C       -6.28158        15.85982        13.51143
   N       -5.22233        15.41496        13.49608
   C       -9.75461        17.33701        12.84174
   C      -10.37260        17.47473        11.56793
   C       -9.51896        16.86719        10.53399
   O       -9.77118        16.82486         9.34672
   C      -11.58101        18.09054        11.41182
   C      -12.24282        18.60597        12.54817
   C      -11.63532        18.46571        13.82921
   C      -10.38238        17.82386        13.95813
   C      -12.30530        18.97985        14.95807
   C      -13.51601        19.60425        14.82943
   C      -14.11276        19.74267        13.56731
   C      -13.48970        19.25430        12.45102
   H        8.94860         7.90151         0.11836
   H        9.93715         4.54078         3.66714
   H       12.30859         4.85888         3.30703
   H       14.16575         5.96853         2.13092
   H       13.70683         7.63277         0.37417
   H       11.38462         8.19984        -0.22186
   H        4.62612         5.41660         3.88367
   H        4.16041         7.60617         0.65729
   H        3.03702         7.06707        -1.25846
   H        4.02010         7.95527        -3.48044
   H        4.19013        10.14503        -4.87181
   H        4.13995        11.59777        -3.85954
   H        2.69142        11.07409        -4.71018
   H       -2.60040         7.86992         3.19578
   H       -3.45910         7.08831         5.51281
   H       -2.59600         6.67661         7.94287
   H       -1.03897         7.42981         8.32740
   H       -1.09124         5.76302         7.76668
   H       -2.09580        10.14775         2.87632
   H       -2.45835        12.07630        -1.39665
   H       -5.58185        14.34970         0.54147
   H       -3.67094        12.32448         4.33601
   H       -4.27897        10.64164         5.78273
   H       -2.27590         9.49168         6.94846
   H       -1.38855        10.52844        10.15620
   H       -0.35360        11.67914         9.31837
   H       -0.44311        10.00238         8.75472
   H       -9.79912        15.49281         6.71906
   H      -11.28638        17.16357         5.43106
   H      -11.23448        18.71503         3.34377
   H      -10.19610        18.04906         2.07219
   H       -9.61017        19.36835         3.07773
   H       -8.24683        16.26551         8.10710
   H       -6.68162        15.08153        11.50438
   H      -12.02553        18.18393        10.43197
   H       -9.95351        17.73123        14.94290
   H      -11.84118        18.87198        15.92743
   H      -14.02078        19.99550        15.69998
   H      -15.06861        20.23800        13.48421
   H      -13.94439        19.35788        11.47659
*
