# ORCA input file
# SCF done       -266.915131709780          0.000594143883
! CAM-B3LYP def2-SVP def2/J RIJCOSX Grid4 TightSCF
%maxcore 5000
%tddft
    Mode sTDDFT
    Ethresh 5.0
    maxcore 5000
end

%pal
  nprocs 6
  end
* xyz 0 1
   C        3.39788         3.13470        -0.06370
   C        3.77759         4.22817         0.67058
   C        4.06121         4.18730         2.04853
   N        4.25629         4.20815         3.18026
   C        3.98032         5.50279         0.10245
   N        4.20208         6.53930        -0.33683
   C        3.46428         1.74921         0.38840
   C        3.50094         0.90171        -0.75787
   C        3.61525        -0.45356        -0.64375
   C        3.68448        -1.03361         0.64314
   C        3.62467        -0.19376         1.79281
   C        3.51652         1.20825         1.64450
   C        3.68310        -0.78682         3.07025
   C        3.80137        -2.14302         3.20801
   C        3.86461        -2.96863         2.07564
   C        3.80702        -2.42572         0.82072
   C        3.37904         1.72270        -1.97598
   O        3.41942         1.36144        -3.12883
   C        3.12204         3.10936        -1.48550
   C        2.58047         4.01709        -2.33968
   C        1.89766         5.22385        -2.04286
   C        1.32154         5.62711        -0.86531
   C        0.66610         6.87209        -0.94284
   C        0.04068         7.58379         0.10540
   C        0.09499         7.13753         1.48030
   C       -0.86274         7.24989         2.45006
   C       -0.43333         6.75653         3.69890
   C        0.84677         6.27801         3.71290
   S        1.54713         6.42763         2.14210
   C        1.60886         5.70778         4.85185
  Cl       -1.44050         6.75460         5.09388
   C       -0.59459         8.76760        -0.25346
   C       -0.59739         9.27951        -1.57634
   C        0.09963         8.61168        -2.60376
   C        0.69887         7.40447        -2.25810
   S        1.59522         6.37252        -3.33051
   C        0.22105         9.15685        -3.93960
   C        0.22253         8.48390        -5.12857
   C        0.43357         9.33298        -6.23560
   C        0.60878        10.64815        -5.91479
   S        0.49860        10.85842        -4.20151
   C        0.87001        11.79898        -6.81563
  Cl        0.46471         8.74318        -7.85267
   C       -1.35978        10.46610        -1.68004
   C       -1.87998        10.89328        -0.49379
   S       -1.45063         9.82839         0.82910
   C       -2.71183        12.04266        -0.26787
   C       -2.93455        12.55873         0.99513
   C       -3.74766        13.67193         1.20822
   F       -3.87175        14.08723         2.48275
   C       -4.44258        14.34007         0.21123
   C       -4.24114        13.82225        -1.09688
   C       -3.36864        12.70230        -1.34132
   N       -3.30939        12.39601        -2.63581
   S       -4.24279        13.40964        -3.46002
   N       -4.77448        14.28653        -2.22551
   C       -5.30982        15.46556         0.43945
   C       -6.31682        15.88134        -0.38345
   C       -7.00229        17.02450         0.08398
   C       -8.06636        17.70518        -0.53909
   C       -8.70343        17.21794        -1.74485
   C       -9.20128        17.94574        -2.78793
   C       -9.82078        17.14207        -3.76843
   C       -9.82069        15.80624        -3.49020
   S       -9.02300        15.51900        -1.98185
   C      -10.39273        14.68891        -4.28336
  Cl      -10.51606        17.80745        -5.19484
   C       -8.50453        18.87450         0.07757
   C       -7.93031        19.37533         1.27702
   C       -6.86671        18.68560         1.91034
   C       -6.44915        17.50982         1.29889
   S       -5.15752        16.48234         1.85427
   C       -6.21971        19.18146         3.10501
   C       -5.71332        18.46363         4.15257
   C       -5.08431        19.27685         5.11858
   C       -5.08335        20.61031         4.82398
   S       -5.89107        20.88237         3.31984
   C       -4.50754        21.73740         5.59899
  Cl       -4.37797        18.62630         6.54713
   C       -8.59545        20.53299         1.70900
   C       -9.63474        20.93263         0.88876
   S       -9.83211        19.85343        -0.47359
   C      -10.38336        22.09753         1.16224
   C      -11.43565        22.65312         0.49137
   C      -12.11734        23.88473         0.85534
   C      -11.76731        24.76434         1.84722
   C      -12.46565        25.95878         2.12408
   N      -12.98679        26.94280         2.40403
   C      -10.66707        24.63634         2.72043
   N       -9.79583        24.61535         3.46923
   C      -13.24265        24.05339        -0.05856
   C      -13.23450        22.97796        -0.99183
   C      -12.10301        22.08716        -0.69674
   O      -11.79596        21.08540        -1.31384
   C      -14.17217        22.86347        -1.97681
   C      -15.18686        23.84110        -2.07620
   C      -15.20577        24.92031        -1.14623
   C      -14.21933        25.01104        -0.13693
   C      -16.22333        25.88997        -1.25399
   C      -17.17625        25.79953        -2.23199
   C      -17.15663        24.73594        -3.14646
   C      -16.18277        23.77743        -3.07023
   H        3.65233        -1.07718        -1.52453
   H        3.46684         1.82155         2.53085
   H        3.63771        -0.14688         3.93925
   H        3.84791        -2.58732         4.19094
   H        3.95865        -4.03670         2.20253
   H        3.85437        -3.05643        -0.05491
   H        2.61259         3.73663        -3.38806
   H        1.31307         5.01315         0.01598
   H       -1.85214         7.63214         2.28182
   H        1.90814         6.49955         5.53969
   H        2.50403         5.20119         4.49830
   H        0.98646         5.00434         5.40340
   H        0.04430         7.42955        -5.22763
   H        0.72220        11.49641        -7.84936
   H        1.89515        12.15140        -6.69849
   H        0.20235        12.62734        -6.58484
   H       -1.54185        10.98984        -2.59866
   H       -2.46673        12.10406         1.85525
   H       -6.53959        15.38042        -1.30521
   H       -9.11104        19.01158        -2.87995
   H      -10.70932        15.05623        -5.25641
   H      -11.25555        14.25946        -3.77365
   H       -9.65671        13.89828        -4.42060
   H       -5.81109        17.39961         4.26116
   H       -4.17604        21.38203         6.57143
   H       -5.24702        22.52461         5.73757
   H       -3.65489        22.16803         5.07341
   H       -8.34647        21.07298         2.60434
   H      -10.04259        22.61138         2.05319
   H      -14.13978        22.03628        -2.67032
   H      -14.26618        25.83919         0.55194
   H      -16.23453        26.70748        -0.54811
   H      -17.95113        26.54772        -2.30625
   H      -17.91662        24.67989        -3.91143
   H      -16.16174        22.95583        -3.77127
*
