# ORCA input file
# SCF done       -162.541047565785          0.000367888274
! CAM-B3LYP def2-SVP def2/J RIJCOSX Grid4 TightSCF
%maxcore 5000
%tddft
    Mode sTDDFT
    Ethresh 5.0
    maxcore 5000
end

%pal
  nprocs 6
  end
* xyz 0 1
   C       -7.01017        -0.32566        17.92759
   C       -6.13048        -1.51901        17.78090
   N       -5.13819        -1.79262        18.59891
   S       -4.42112        -3.17170        18.13071
   N       -5.38065        -3.45818        16.85451
   C       -6.27171        -2.49671        16.76145
   C       -7.29303        -2.42990        15.66719
   C       -8.38015        -1.49373        16.08881
   C       -8.24007        -0.51498        17.10782
   N       -9.32941         0.20575        17.25941
   S      -10.45601        -0.29620        16.20409
   N       -9.56478        -1.46637        15.52027
   C       -6.63396        -1.91315        14.41977
   C       -6.27605        -0.62250        14.15589
   C       -5.65490        -0.50542        12.90217
   C       -5.53859        -1.71993        12.22282
   S       -6.20662        -3.01674        13.14577
   C       -4.92139        -1.57744        10.97468
   C       -4.57255        -0.24582        10.71244
   S       -5.00347         0.83675        12.00945
   C       -3.96041        -0.05720         9.47825
   C       -3.83064        -1.24293         8.77702
   S       -4.48044        -2.61307         9.67082
   C       -3.26738        -1.46311         7.48665
   C       -2.71918        -0.45487         6.65807
   C       -2.17161        -0.73789         5.35320
   N       -1.66153         0.27928         4.62523
   C       -1.67191         1.48137         5.09616
   C       -2.21551         1.76016         6.37369
   N       -2.71097         0.81936         7.10609
   F       -2.23471         2.99970         6.86434
   F       -1.15258         2.44655         4.33727
   C       -2.14839        -2.04295         4.80628
   C       -2.68765        -3.04589         5.63994
   C       -3.23049        -2.76437         6.94163
   N       -3.67990        -3.87052         7.53582
   S       -3.44715        -5.12806         6.56849
   N       -2.76648        -4.34427         5.34536
   C       -1.63932        -2.37961         3.51825
   C       -1.08839        -1.55220         2.55605
   C       -0.71477        -2.25467         1.41498
   C       -0.97381        -3.62977         1.48843
   S       -1.69076        -4.05915         2.99476
   C       -0.58796        -4.29438         0.31981
   C       -0.04166        -3.43458        -0.63392
   S        0.00715        -1.78103        -0.09982
   C        0.34836        -4.08329        -1.81901
   C        0.09984        -5.42075        -1.76476
   S       -0.61889        -5.92232        -0.25240
   C        0.38178        -6.45298        -2.81736
   C       -0.87258        -7.20752        -3.12944
   N       -1.80455        -6.75534        -3.93740
   S       -3.02770        -7.82200        -3.98354
   N       -2.37695        -8.89973        -2.95881
   C       -1.20579        -8.46221        -2.55352
   C       -0.32653        -9.20770        -1.60986
   C        1.06219        -8.67957        -1.71731
   C        1.39384        -7.42496        -2.29413
   N        2.68548        -7.18541        -2.28268
   S        3.45056        -8.44229        -1.59652
   N        2.12465        -9.33085        -1.29971
   H       -6.47465         0.57161        17.59605
   H       -7.26825        -0.16388        18.97648
   H       -7.69651        -3.42623        15.46385
   H       -6.45637         0.20441        14.81798
   H       -3.62346         0.88651         9.09706
   H       -0.97257        -0.49512         2.69237
   H        0.78765        -3.58882        -2.66494
   H        0.76006        -5.94130        -3.70678
   H       -0.35166       -10.27868        -1.82003
   H       -0.69182        -9.07357        -0.58501
*
