# ORCA input file
# SCF done       -179.470499258791          0.000419330348
! CAM-B3LYP def2-SVP def2/J RIJCOSX Grid4 TightSCF
%maxcore 5000
%tddft
    Mode sTDDFT
    Ethresh 5.0
    maxcore 5000
end

%pal
  nprocs 6
  end
* xyz 0 1
   C       13.93452        -2.19108        -0.59969
   C       15.27233        -2.41178        -0.50321
   S       15.77751        -3.66360        -1.58016
   C       14.15223        -3.89414        -2.18122
  Cl       13.80453        -5.04805        -3.37026
   C       13.28997        -3.03901        -1.56105
   C       11.85880        -2.73362        -1.60644
   O       11.00595        -3.22201        -2.32106
   C       11.65763        -1.70105        -0.56790
   C       12.94511        -1.30501        -0.01910
   C       13.20957        -0.26692         0.83245
   C       14.50831        -0.04953         1.33802
   N       15.55237         0.12854         1.77934
   C       12.29044         0.72301         1.24099
   N       11.62713         1.60634         1.55327
   C       10.45894        -1.30304        -0.05012
   C        9.14487        -1.63050        -0.43763
   S        8.70541        -2.42364        -1.91728
   C        7.03698        -2.18543        -1.53155
   N        6.05262        -2.65161        -2.42977
   O        4.88886        -2.46241        -2.13525
   O        6.44370        -3.20607        -3.43678
   C        6.80906        -1.57115        -0.32719
   C        8.00923        -1.25130         0.32763
   C        8.12977        -0.67787         1.62681
   C        7.15074        -0.11573         2.37632
   C        7.46794         0.42722         3.65041
   N        6.56434         1.06328         4.46479
   C        5.17796         1.33222         4.16927
   C        5.01984         2.52385         3.22788
   C        7.15816         1.52813         5.65441
   O        6.54206         2.11096         6.52170
   C        8.54316         1.12530         5.54048
   C        8.70119         0.44387         4.30537
   C       10.08517         0.03249         4.20744
   O       10.69161        -0.60713         3.36229
   N       10.68088         0.52219         5.37388
   C       12.08129         0.30721         5.64818
   C       12.29955        -0.85474         6.61370
   C        9.77534         1.16580         6.18583
   C       10.12060         1.73858         7.44070
   C        9.22821         2.34364         8.25177
   C        9.61440         2.90526         9.52810
   N       10.88626         2.78251         9.92707
   C       11.20403         3.31584        11.08987
   C       10.28278         3.97260        11.89266
   C        8.97344         4.04491        11.40287
   N        8.65892         3.50877        10.22550
   C        7.87783         4.72070        12.06946
   C        7.90175         5.25856        13.30045
   C        6.77930         5.91467        13.90055
   C        5.81261         6.65945        13.31394
   C        4.55217         6.93140        14.08407
   O        4.38372         6.74544        15.26402
   C        3.60344         7.40768        13.07355
   C        2.28269         7.74150        13.01719
   S        1.84379         8.22811        11.39716
   C        3.45105         7.98565        10.81828
   C        4.27091         7.55027        11.81218
   C        5.67390         7.21641        11.97456
   C        6.65576         7.57704        11.09331
   C        6.34516         8.19561         9.86277
   N        6.10472         8.69369         8.85809
   C        8.04040         7.45528        11.31979
   N        9.17874         7.42125        11.46146
  Cl        1.14539         7.72305        14.27179
   H       15.99641        -1.93287         0.12569
   H       10.52649        -0.65767         0.81629
   H        5.82251        -1.38839         0.05806
   H        9.11344        -0.70207         2.06739
   H        6.13373        -0.04455         2.02173
   H        4.70316         1.55818         5.12815
   H        4.71298         0.43637         3.74857
   H        5.44278         3.41482         3.68508
   H        3.96605         2.70073         3.03147
   H        5.52849         2.34643         2.28286
   H       12.51980         1.22776         6.04095
   H       12.54907         0.08017         4.68604
   H       11.81421        -0.66347         7.56800
   H       13.36334        -0.99546         6.78299
   H       11.89020        -1.77011         6.19289
   H       11.14986         1.68507         7.76542
   H        8.18465         2.43950         7.98901
   H       12.23961         3.21058        11.38894
   H       10.57113         4.41317        12.83098
   H        6.97180         4.75148        11.47827
   H        8.77068         5.14026        13.93359
   H        6.64889         5.76038        14.96818
   H        3.67281         8.17119         9.78611
*
