# ORCA input file
# SCF done       -175.807538231353          0.000357251753
! CAM-B3LYP def2-SVP def2/J RIJCOSX Grid4 TightSCF
%maxcore 5000
%tddft
    Mode sTDDFT
    Ethresh 5.0
    maxcore 5000
end

%pal
  nprocs 6
  end
* xyz 0 1
   C        0.61315        -0.02716        -2.54648
   C       -0.44181         0.73560        -2.94026
   S       -0.45935         2.25016        -2.11247
   C        0.99295         1.85265        -1.22206
  Cl        1.66378         2.92974        -0.10037
   C        1.43460         0.60984        -1.56051
   C        2.56105        -0.26332        -1.21096
   O        3.54576         0.01881        -0.56783
   C        2.31247        -1.51992        -1.98221
   C        1.15786        -1.33853        -2.83886
   C        0.61047        -2.23472        -3.72116
   C       -0.54821        -1.92271        -4.46186
   N       -1.48815        -1.68504        -5.07555
   C        1.10989        -3.52333        -3.99020
   N        1.47173        -4.58265        -4.24680
   C        3.14227        -2.60593        -1.95995
   C        4.05502        -2.87607        -0.92159
   S        5.47220        -3.83299        -1.18869
   C        5.95429        -3.78571         0.47625
   C        5.03891        -3.03017         1.22084
   C        3.93409        -2.56124         0.44430
   N        2.87394        -1.96514         1.00659
   C        2.96727        -1.71751         2.28341
   N        4.04865        -1.87797         3.04973
   C        5.07639        -2.52209         2.54821
   C        6.26511        -2.56878         3.32879
   N        7.24002        -2.55101         3.92920
   C        7.00510        -4.57272         1.00938
   N        8.15401        -4.96046         0.36553
   C        8.65898        -4.45545        -0.88856
   C        9.02106        -2.97634        -0.80280
   C        8.92594        -5.83813         1.16213
   O        9.99045        -6.29680         0.81204
   C        8.13884        -6.00559         2.36226
   C        6.98151        -5.20155         2.25027
   C        6.15171        -5.46633         3.40580
   O        5.06536        -5.03820         3.73849
   N        6.88021        -6.40792         4.15626
   C        6.36984        -6.83289         5.43863
   C        5.44090        -8.03818         5.30652
   C        8.05638        -6.75493         3.53400
   C        9.03634        -7.72053         3.89640
   C        8.96064        -8.70600         4.81809
   C        9.97735        -9.70080         5.02901
   C        9.67711       -10.88191         5.73116
   N       10.54922       -11.83738         5.93476
   C       11.77775       -11.65217         5.45516
   N       12.17132       -10.58659         4.75291
   C       11.29733        -9.62882         4.55322
   C       12.75769       -12.69450         5.64403
   S       14.00390       -12.86823         4.46910
   C       14.64343       -14.28293         5.25265
   C       13.89582       -14.60326         6.38413
   C       12.83564       -13.67568         6.60830
   C       12.00472       -13.70584         7.82574
   O       11.46425       -12.72934         8.29933
   C       11.93563       -15.04087         8.45644
   C       10.91589       -15.31359         9.36285
   C       10.83513       -16.55188         9.97270
   C       11.78798       -17.52209         9.69735
   C       12.81859       -17.25073         8.81648
   C       12.89930       -16.01504         8.17924
   C       14.04574       -15.76835         7.26729
   O       15.00320       -16.51915         7.27591
   C       15.78066       -14.85521         4.57582
   C       16.60826       -15.81050         4.99481
   H       -1.20824         0.51969        -3.65795
   H        3.11095        -3.31863        -2.77457
   H        2.10207        -1.28706         2.76847
   H        7.92739        -4.63015        -1.68329
   H        9.55412        -5.04770        -1.09977
   H        8.14344        -2.36696        -0.59791
   H        9.45547        -2.65119        -1.74368
   H        9.74640        -2.81414        -0.00914
   H        5.79840        -5.98873         5.83674
   H        7.20772        -7.03362         6.10855
   H        4.56211        -7.75813         4.73141
   H        5.12050        -8.36741         6.29114
   H        5.93275        -8.86515         4.79827
   H        9.91236        -7.66045         3.26350
   H        8.07376        -8.84284         5.41837
   H        8.68153       -11.06293         6.11884
   H       11.66299        -8.76927         4.00731
   H       10.19420       -14.53757         9.56953
   H       10.03480       -16.76082        10.66672
   H       11.73034       -18.48799        10.17640
   H       13.57908       -17.98744         8.60417
   H       15.96079       -14.38939         3.61305
   H       16.49448       -16.29606         5.94635
   H       17.42651       -16.12788         4.37070
*
