# ORCA input file
# SCF done       -211.448199539322          0.000568904577
! CAM-B3LYP def2-SVP def2/J RIJCOSX Grid4 TightSCF
%maxcore 5000
%tddft
    Mode sTDDFT
    Ethresh 5.0
    maxcore 5000
end

%pal
  nprocs 6
  end
* xyz 0 1
   C        0.48751         1.49145        -2.75490
   C        0.60700         1.62170        -4.11144
   C        0.24331         0.61445        -5.02971
   N       -0.04067        -0.17046        -5.81683
   C        1.18187         2.74836        -4.73359
   N        1.68546         3.62822        -5.27307
   C        0.12803         0.28174        -2.03213
   C        0.56134         0.41036        -0.67816
   C        0.37822        -0.59378         0.22947
   C       -0.26265        -1.78444        -0.17997
   C       -0.71369        -1.91004        -1.52666
   C       -0.50694        -0.85766        -2.44693
   C       -1.36154        -3.09958        -1.91758
   C       -1.55299        -4.11867        -1.02483
   C       -1.10641        -3.99543         0.29958
   C       -0.47498        -2.85378         0.71274
   C        1.16549         1.73686        -0.48019
   O        1.70328         2.18856         0.50347
   C        0.92022         2.46136        -1.76418
   C        0.98006         3.81030        -1.80678
   C        0.46598         4.69261        -2.80912
   C       -0.77992         4.71442        -3.41535
   N       -1.86796         3.84427        -3.23265
   O       -1.71498         2.83647        -2.55534
   O       -2.92299         4.15190        -3.75905
   C       -0.88443         5.88480        -4.25501
   C        0.25766         6.60006        -4.14470
   C        1.15203         5.91232        -3.24584
   C        2.46053         6.23326        -2.95632
   C        3.48873         5.31106        -2.59511
   C        4.69607         5.93883        -2.68449
   C        4.48162         7.31201        -3.02410
   N        5.52111         8.25991        -3.06999
   O        6.66270         7.83447        -3.05395
   O        5.22922         9.44386        -3.10541
   C        3.11560         7.54527        -3.17083
   C        2.49310         8.78681        -3.38218
   C        1.23473         9.10809        -2.94288
   C        0.62354        10.34276        -3.22111
   N       -0.55356        10.77266        -2.65227
   C       -1.37038        10.04434        -1.70979
   C       -2.25043         9.00762        -2.40346
   C       -0.93148        12.04200        -3.11143
   O       -1.92781        12.62681        -2.73708
   C        0.11000        12.40830        -4.05227
   C        1.04207        11.35374        -4.09845
   C        2.06028        11.69595        -5.07184
   O        3.02291        11.09592        -5.49084
   N        1.67657        12.97483        -5.53500
   C        2.49343        13.69000        -6.48640
   C        3.36203        14.74355        -5.80408
   C        0.52193        13.40936        -4.94478
   C       -0.10609        14.64386        -5.25230
   C       -1.26294        15.03435        -4.66596
   C       -1.95953        16.25807        -4.94868
   C       -3.00237        16.69440        -4.11299
   N       -3.66231        17.81092        -4.31644
   C       -3.28931        18.55552        -5.35486
   N       -2.37037        18.21390        -6.25040
   C       -1.72304        17.08603        -6.05578
   C       -3.99762        19.82941        -5.55741
   C       -3.68081        20.91821        -4.84482
   C       -4.28114        22.25115        -4.84541
   C       -5.28964        22.68130        -5.65857
   C       -5.83439        23.98442        -5.62767
   N       -6.31358        25.02653        -5.64865
   C       -5.91756        21.88823        -6.64462
   N       -6.46898        21.30242        -7.46252
   C       -3.59904        23.03145        -3.82354
   C       -2.57354        22.23627        -3.22936
   C       -2.55897        20.90750        -3.85353
   O       -1.79800        19.98930        -3.65217
   C       -1.77113        22.72212        -2.23582
   C       -1.96132        24.04439        -1.77821
   C       -2.98525        24.84468        -2.36484
   C       -3.79841        24.31860        -3.39285
   C       -3.16724        26.16349        -1.89941
   C       -2.37741        26.66868        -0.90301
   C       -1.36986        25.88014        -0.32638
   C       -1.16601        24.59633        -0.75447
   H        0.71553        -0.48115         1.24925
   H       -0.87009        -0.96927        -3.45657
   H       -1.70148        -3.19031        -2.93864
   H       -2.04978        -5.02600        -1.33412
   H       -1.26627        -4.80930         0.99088
   H       -0.13004        -2.75351         1.73147
   H        1.44323         4.28685        -0.94648
   H       -1.74477         6.09575        -4.86080
   H        0.52152         7.47265        -4.70850
   H        3.33403         4.26578        -2.41367
   H        5.66853         5.51137        -2.52671
   H        3.09660         9.55233        -3.85808
   H        0.69941         8.40935        -2.31568
   H       -2.00198        10.78884        -1.21729
   H       -0.72844         9.57529        -0.95953
   H       -2.91047         9.49790        -3.11457
   H       -2.85968         8.49194        -1.66671
   H       -1.65078         8.27301        -2.93663
   H        1.85627        14.14110        -7.25189
   H        3.13292        12.93921        -6.95875
   H        2.75229        15.48057        -5.28579
   H        3.97123        15.25200        -6.54592
   H        4.02090        14.26862        -5.08151
   H        0.37564        15.27617        -5.98360
   H       -1.71508        14.39942        -3.91413
   H       -3.30020        16.11403        -3.24882
   H       -1.00999        16.82524        -6.82713
   H       -4.78053        19.82442        -6.30287
   H       -1.00117        22.10116        -1.80250
   H       -4.56486        24.94851        -3.81587
   H       -3.94375        26.76641        -2.34655
   H       -2.52443        27.67926        -0.55298
   H       -0.75629        26.29540         0.45888
   H       -0.39207        23.98501        -0.31418
*
