# ORCA input file
# SCF done       -246.322615484486          0.000621317570
! CAM-B3LYP def2-SVP def2/J RIJCOSX Grid4 TightSCF
%maxcore 5000
%tddft
    Mode sTDDFT
    Ethresh 5.0
    maxcore 5000
end

%pal
  nprocs 6
  end
* xyz 0 1
   C        4.22703         2.73984        -2.73182
   C        5.34920         1.98196        -2.53544
   C        5.37267         0.57295        -2.60061
   N        5.44608        -0.57118        -2.64786
   C        6.60225         2.52110        -2.17255
   N        7.62316         2.90747        -1.81790
   C        2.87187         2.24944        -2.93012
   C        1.97333         3.35490        -2.86623
   C        0.62343         3.19096        -2.99832
   C        0.10321         1.89428        -3.20606
   C        0.99710         0.78619        -3.28021
   C        2.38936         0.98466        -3.13932
   C        0.46618        -0.50213        -3.49307
   C       -0.88293        -0.68999        -3.62464
   C       -1.76222         0.40081        -3.55038
   C       -1.28000         1.66511        -3.34544
   C        2.72972         4.59943        -2.66534
   O        2.28776         5.72477        -2.58348
   C        4.16418         4.18929        -2.65640
   C        5.20099         5.05442        -2.77525
   C        5.11141         6.47031        -2.62337
   C        5.60071         7.42084        -3.49785
   N        6.26289         7.15326        -4.71189
   O        6.34288         5.98875        -5.06864
   O        6.72551         8.09687        -5.32234
   C        5.26876         8.73921        -3.02356
   C        4.53467         8.60812        -1.89365
   C        4.40885         7.20530        -1.57042
   C        3.88411         6.65608        -0.41948
   C        4.34376         5.47596         0.24129
   C        3.75734         5.40197         1.47022
   C        2.83450         6.48718         1.61144
   N        2.01175         6.64863         2.73681
   O        1.22817         7.58848         2.75987
   O        2.13252         5.84251         3.64217
   C        2.85621         7.26201         0.44925
   C        1.96792         8.29756         0.10921
   C        1.70309         8.67207        -1.18161
   C        0.93896         9.75513        -1.65590
   N        0.14666        10.66381        -0.99659
   C       -0.19581        10.71302         0.40775
   C        0.86501        11.44543         1.22533
   C       -0.35750        11.64773        -1.86865
   O       -1.06149        12.56682        -1.50955
   C        0.16800        11.28710        -3.17316
   C        0.94552        10.12871        -3.00927
   C        1.54282         9.79333        -4.28734
   O        2.30900         8.92266        -4.62826
   N        1.04565        10.78899        -5.16238
   C        1.40478        10.80422        -6.56046
   C        0.28966        10.23724        -7.43527
   C        0.23462        11.67912        -4.51681
   C       -0.36457        12.80590        -5.14109
   C       -1.18558        13.63942        -4.46456
   C       -1.75297        14.85528        -4.98317
   C       -3.04638        15.27484        -4.60616
   C       -3.96476        14.41610        -3.82684
   O       -3.81301        13.27525        -3.51278
   S       -5.45794        15.34267        -3.46195
   C       -4.94482        16.74913        -4.44906
   O       -5.63987        17.70381        -4.62607
   C       -3.58497        16.50092        -4.97674
   C       -2.89775        17.42074        -5.79587
   C       -1.61691        16.99647        -6.18550
   C       -1.06697        15.77590        -5.79476
   C        0.33840        15.75787        -6.27698
   O        1.18294        14.92085        -6.18396
   O        0.56737        16.95195        -6.90534
   C       -0.55554        17.74600        -6.90685
   O       -0.56210        18.82171        -7.41563
   C       -3.43591        18.71968        -6.10956
   C       -3.31119        19.34172        -7.29661
   C       -3.74255        20.68031        -7.55810
   C       -3.64144        21.72585        -6.69906
   C       -4.02582        23.10080        -6.99477
   C       -4.95327        23.49028        -7.92145
   C       -5.32381        24.83339        -8.14807
   N       -5.65637        25.90733        -8.37736
   C       -5.68504        22.60431        -8.74219
   N       -6.32203        21.93871        -9.42635
   C       -3.31121        23.97009        -6.07309
   C       -2.59183        23.15738        -5.14997
   C       -2.83582        21.73541        -5.43830
   O       -2.43740        20.79044        -4.79461
   C       -1.82387        23.70007        -4.15920
   C       -1.73721        25.10515        -4.04626
   C       -2.44874        25.92502        -4.97048
   C       -3.23639        25.33570        -5.98514
   C       -2.35100        27.32636        -4.84974
   C       -1.58987        27.89235        -3.86345
   C       -0.89117        27.08452        -2.95350
   C       -0.96357        25.72079        -3.04252
   H       -0.03969         4.04171        -2.94517
   H        3.04356         0.12972        -3.20734
   H        1.14701        -1.33869        -3.54796
   H       -1.28012        -1.68066        -3.78650
   H       -2.82360         0.23418        -3.65662
   H       -1.95243         2.50844        -3.28763
   H        6.17120         4.67931        -3.08393
   H        5.56602         9.64157        -3.52177
   H        4.18783         9.40262        -1.26225
   H        5.12441         4.83761        -0.12583
   H        3.93049         4.66657         2.23343
   H        1.44913         8.74551         0.94423
   H        2.12840         8.07985        -1.98242
   H       -0.36011         9.70055         0.78008
   H       -1.13848        11.26457         0.46999
   H        1.84667        10.99624         1.09366
   H        0.60338        11.40485         2.27849
   H        0.91679        12.48679         0.91707
   H        2.29576        10.17681        -6.65106
   H        1.65909        11.82475        -6.85816
   H        0.08182         9.20799        -7.15313
   H        0.59715        10.25497        -8.47686
   H       -0.62513        10.81652        -7.32948
   H       -0.14468        12.97388        -6.18370
   H       -1.46684        13.38939        -3.44762
   H       -4.02195        19.17714        -5.32599
   H       -2.90431        18.81264        -8.14809
   H       -4.08450        20.87303        -8.56815
   H       -1.28923        23.06352        -3.46995
   H       -3.75684        25.98097        -6.67515
   H       -2.89177        27.94421        -5.55135
   H       -1.52189        28.96644        -3.77874
   H       -0.29516        27.54829        -2.18197
   H       -0.42794        25.09384        -2.34491
*
