# ORCA input file
# SCF done       -210.241023554381          0.000594776155
! CAM-B3LYP def2-SVP def2/J RIJCOSX Grid4 TightSCF
%maxcore 5000
%tddft
    Mode sTDDFT
    Ethresh 5.0
    maxcore 5000
end

%pal
  nprocs 6
  end
* xyz 0 1
   C        2.23056         2.52086         2.07627
   C        1.59869         3.38091         2.93546
   C        2.26742         4.13599         3.91859
   N        2.76832         4.81862         4.69445
   C        0.22040         3.66618         2.90900
   N       -0.89329         3.94558         2.94922
   C        3.60987         2.06606         2.20220
   C        3.76343         0.85835         1.45904
   C        4.95167         0.18723         1.41715
   C        6.06345         0.70824         2.11646
   C        5.92147         1.92295         2.84819
   C        4.67623         2.59061         2.88283
   C        7.04119         2.43792         3.53296
   C        8.24286         1.78469         3.50080
   C        8.38107         0.58764         2.78210
   C        7.31473         0.06075         2.10535
   C        2.49347         0.53437         0.78508
   O        2.22101        -0.44155         0.12771
   C        1.61639         1.71929         1.03133
   C        0.57134         1.95805         0.20902
   C       -0.15403         3.19089         0.05109
   C       -1.48654         3.18994        -0.32081
   C       -2.23070         4.36651        -0.37635
   C       -1.66838         5.57971        -0.04263
   C       -0.28134         5.64020         0.23829
   C        0.48611         4.44895         0.24475
   N        1.81819         4.51664         0.41847
   C        2.38227         5.67393         0.64441
   C        1.59498         6.86153         0.72033
   N        0.30855         6.82427         0.49342
   C        2.20883         8.18274         1.03388
   C        3.86171         5.69892         0.82230
   C       -2.46860         6.79724        -0.01099
   N       -2.75797         7.48918         1.12147
   C       -2.42003         7.10865         2.47474
   C       -1.33164         8.00793         3.04990
   C       -3.52425         8.64455         0.83913
   O       -3.92892         9.40503         1.69509
   C       -3.68189         8.62517        -0.59872
   C       -3.03942         7.45547        -1.08398
   C       -3.16410         7.42889        -2.52635
   O       -2.79569         6.63385        -3.36184
   N       -3.88161         8.60409        -2.82272
   C       -4.17840         8.97138        -4.18732
   C       -3.19867        10.01057        -4.72654
   C       -4.18646         9.33051        -1.69365
   C       -4.86516        10.56735        -1.72104
   C       -5.18956        11.26687        -0.59499
   C       -5.81380        12.53469        -0.62050
   C       -6.09536        13.33895        -1.70932
   C       -6.68061        14.55053        -1.26287
   C       -6.78038        14.43992         0.20873
   C       -6.25179        13.24566         0.57583
   C       -7.33150        15.38402         1.08246
   N       -7.78657        16.13440         1.82359
   C       -7.04075        15.63316        -2.03745
   C       -7.59851        16.87006        -1.60449
   C       -7.81244        17.68403        -2.70117
   C       -7.33780        16.97397        -3.87911
   C       -6.88239        15.75098        -3.49504
   C       -6.32722        14.79980        -4.35720
   N       -5.86888        14.03212        -5.07978
   C       -8.33053        19.00176        -2.62123
   C       -8.92720        19.73808        -3.60326
   C       -9.28669        21.14260        -3.50934
   C       -8.87672        22.02508        -2.54346
   C       -9.24334        23.38701        -2.51261
   N       -9.50848        24.50083        -2.42852
   C       -8.00853        21.72229        -1.47308
   N       -7.28783        21.56889        -0.59250
   C      -10.08587        21.48136        -4.68051
   C      -10.18803        20.32774        -5.50835
   C       -9.48278        19.20045        -4.87602
   O       -9.44072        18.05927        -5.28221
   C      -10.86634        20.34495        -6.69289
   C      -11.48298        21.54360        -7.11526
   C      -11.39283        22.70119        -6.28930
   C      -10.68736        22.65074        -5.06521
   C      -12.01470        23.89129        -6.71880
   C      -12.69029        23.93839        -7.90777
   C      -12.77699        22.79836        -8.72083
   C      -12.18647        21.62632        -8.33290
   H        5.04434        -0.72946         0.85397
   H        4.59846         3.51133         3.43961
   H        6.92907         3.35779         4.08802
   H        9.09404         2.18641         4.02970
   H        9.33674         0.08557         2.76734
   H        7.41538        -0.86032         1.55029
   H        0.28551         1.13934        -0.44314
   H       -1.97676         2.24760        -0.51394
   H       -3.27698         4.32349        -0.63682
   H        2.66413         8.15825         2.02325
   H        1.44591         8.95560         1.00639
   H        2.98714         8.42228         0.31117
   H        4.26550         4.70283         0.66155
   H        4.10889         6.02952         1.83085
   H        4.32003         6.39247         0.11955
   H       -2.09579         6.06549         2.47272
   H       -3.32734         7.20324         3.07944
   H       -0.44669         7.96302         2.42144
   H       -1.07476         7.67473         4.05130
   H       -1.68346         9.03511         3.09815
   H       -5.20730         9.33502        -4.25323
   H       -4.09175         8.05065        -4.77117
   H       -3.23211        10.92580        -4.14010
   H       -3.44948        10.25006        -5.75583
   H       -2.18591         9.61606        -4.69641
   H       -5.13249        10.96993        -2.68672
   H       -4.95499        10.84948         0.37541
   H       -5.88806        13.11672        -2.73639
   H       -6.16526        12.85901         1.57446
   H       -7.84034        17.11269        -0.58761
   H       -7.32164        17.36481        -4.87695
   H       -8.24313        19.45010        -1.63803
   H      -10.92756        19.45529        -7.30211
   H      -10.64338        23.54249        -4.46054
   H      -11.94414        24.76672        -6.09004
   H      -13.16166        24.85518        -8.22879
   H      -13.31404        22.85347        -9.65593
   H      -12.25000        20.74507        -8.95439
*
