# ORCA input file
# SCF done       -183.817985274579          0.000918062250
! CAM-B3LYP def2-SVP def2/J RIJCOSX Grid4 TightSCF
%maxcore 5000
%tddft
    Mode sTDDFT
    Ethresh 5.0
    maxcore 5000
end

%pal
  nprocs 6
  end
* xyz 0 1
   C       -1.49102         1.94074         8.12685
   N       -1.51543         3.28554         8.32801
   C       -1.38727         3.95128         9.59991
   C       -2.66366         3.83364        10.42865
   C       -1.73902         3.98331         7.12114
   O       -1.80158         5.19773         7.05400
   C       -1.84361         2.94319         6.12971
   C       -1.68569         1.68622         6.79884
   C       -1.77736         0.63683         5.80489
   O       -1.71637        -0.56991         5.87985
   N       -1.98285         1.33083         4.59522
   C       -2.08225         0.62187         3.34341
   C       -0.76290         0.63520         2.57426
   C       -2.01652         2.69741         4.77471
   C       -2.19322         3.62183         3.71173
   C       -2.25135         4.96210         3.91726
   C       -2.38677         5.93156         2.88921
   S       -2.53104         7.61636         3.30892
   C       -2.58959         8.09832         1.64376
   C       -2.50964         6.97242         0.81022
   C       -2.40141         5.76704         1.51708
   C       -2.54881         6.99456        -0.59292
   N       -2.57942         6.95726        -1.74046
   C       -2.69059         9.47205         1.32457
   C       -2.58896         9.99073         0.07005
   C       -2.67682        11.37706        -0.19118
   N       -2.51117        11.92538        -1.44374
   C       -2.29322        11.20836        -2.67752
   C       -3.58026        10.58718        -3.21380
   C       -2.61832        13.32400        -1.42531
   O       -2.48913        14.02222        -2.41332
   C       -2.87748        13.64625        -0.04010
   C       -2.90647        12.43286         0.69125
   C       -3.17722        12.75251         2.07345
   O       -3.29135        12.05799         3.06595
   N       -3.31124        14.15021         2.08758
   C       -3.53676        14.86323         3.32070
   C       -2.25132        15.48335         3.86364
   C       -3.12420        14.70114         0.83802
   C       -3.19345        16.08920         0.57313
   C       -2.91376        16.61101        -0.65100
   C       -2.95187        17.99191        -0.96726
   S       -2.39266        18.53277        -2.52711
   C       -2.72360        20.19242        -2.14883
   C       -3.25744        20.29756        -0.85506
   C       -3.37503        19.06353        -0.20238
   C       -3.62795        21.49434        -0.22139
   N       -3.94443        22.44276         0.34428
   C       -2.42132        21.19268        -3.10198
   C       -2.71850        22.51357        -2.96924
   C       -2.35376        23.47901        -3.93785
   N       -2.67031        24.81522        -3.83196
   C       -3.37977        25.44980        -2.74685
   C       -2.48607        25.67550        -1.53012
   C       -2.17861        25.56282        -4.91465
   O       -2.34695        26.76059        -5.03238
   C       -1.50932        24.58826        -5.74817
   C       -1.64072        23.31773        -5.12260
   C       -0.96744        22.34642        -5.94873
   O       -0.80579        21.14516        -5.83678
   N       -0.45937        23.09766        -7.02489
   C        0.25153        22.45786        -8.10446
   C       -0.63865        22.24948        -9.32739
   C       -0.77925        24.43026        -6.91753
   C       -0.37285        25.41975        -7.87333
   C       -0.70754        26.70795        -7.77026
   H       -1.32672         1.26175         8.94299
   H       -1.18123         5.00207         9.37853
   H       -0.53880         3.52520        10.14415
   H       -3.49913         4.27744         9.89267
   H       -2.53936         4.35492        11.37366
   H       -2.89511         2.79034        10.63254
   H       -2.89049         1.04833         2.74233
   H       -2.34243        -0.40882         3.60112
   H       -0.45066         1.65260         2.34819
   H       -0.87324         0.08650         1.64297
   H        0.01431         0.16025         3.16767
   H       -2.28175         3.22377         2.71182
   H       -2.18107         5.34308         4.92766
   H       -2.32718         4.81318         1.02573
   H       -2.84207        10.14242         2.16109
   H       -2.41361         9.33542        -0.76903
   H       -1.52857        10.44119        -2.52767
   H       -1.91772        11.94804        -3.39039
   H       -3.98110         9.85366        -2.51824
   H       -3.37906        10.09143        -4.15901
   H       -4.32739        11.36050        -3.37612
   H       -3.91400        14.12248         4.03151
   H       -4.30498        15.62695         3.16855
   H       -1.51596        14.70463         4.05056
   H       -2.45656        15.99910         4.79777
   H       -1.83007        16.19326         3.15494
   H       -3.46608        16.74204         1.38928
   H       -2.62413        15.94363        -1.45200
   H       -3.76647        18.97116         0.79523
   H       -1.91127        20.85484        -3.99514
   H       -3.25301        22.85908        -2.09805
   H       -4.25294        24.84924        -2.47763
   H       -3.71957        26.41423        -3.13520
   H       -2.12364        24.73200        -1.12888
   H       -3.04930        26.18592        -0.75429
   H       -1.63216        26.29006        -1.80496
   H        0.57438        21.48693        -7.71766
   H        1.13707        23.04577        -8.36208
   H       -1.48923        21.62587        -9.06355
   H       -0.07492        21.75419       -10.11319
   H       -1.01038        23.19906        -9.70624
   H        0.23363        25.07861        -8.70112
   H       -1.31234        27.06996        -6.95572
   H       -0.38432        27.42735        -8.50277
*
