# ORCA input file
# SCF done       -158.794341250361          0.000779639701
! CAM-B3LYP def2-SVP def2/J RIJCOSX Grid4 TightSCF
%maxcore 5000
%tddft
    Mode sTDDFT
    Ethresh 5.0
    maxcore 5000
end

%pal
  nprocs 6
  end
* xyz 0 1
   O       -3.05388         1.07322        -0.98738
   C       -2.00628         1.32646        -0.15811
   N       -1.64534         0.29069         0.54097
   C       -2.49403        -0.71434         0.16390
   C       -3.35754        -0.21240        -0.78133
   C       -2.41732        -2.05816         0.72559
   O       -3.14502        -2.96708         0.42207
   C       -1.42032         2.62425        -0.12061
   C       -0.36241         3.03243         0.66479
   C       -0.05468         4.37660         0.44552
   C       -0.89015         4.97426        -0.51696
   S       -2.04953         3.89189        -1.14743
   C       -0.50724         6.32740        -0.67194
   C        0.57202         6.59438         0.19347
   C        0.90834         5.36587         0.90353
   C        1.94177         5.16949         1.76890
   C        2.90415         6.16416         2.05520
   N        3.72590         6.93308         2.26942
   C        2.16103         3.92786         2.40545
   N        2.34685         2.92688         2.93169
   C        0.99646         7.91742         0.14542
   C        0.25663         8.65838        -0.76899
   S       -0.97956         7.69776        -1.57169
   C        0.41378        10.02458        -1.07059
   C        1.23302        10.95134        -0.41020
   C        1.15739        12.27301        -0.97394
   N        1.84521        13.28825        -0.44490
   C        2.58078        13.02598         0.61178
   C        3.31702        14.16413         1.22418
   O        3.12763        15.31419         0.89818
   C        4.27696        13.78224         2.27688
   C        4.34797        12.55433         2.79982
   C        3.47394        11.44122         2.38437
   O        3.41266        10.39631         2.99194
   C        2.65644        11.71225         1.17168
   N        1.99382        10.70038         0.65835
   C        0.28078        12.35550        -2.06520
   S       -0.44422        10.80697        -2.35967
   C       -0.01903        13.49608        -2.83422
   C        0.60694        14.73534        -2.76442
   C        0.05732        15.63700        -3.66881
   C       -1.00406        15.09205        -4.41811
   S       -1.30536        13.45744        -4.03382
   C       -1.51872        16.09490        -5.27316
   C       -0.78547        17.27940        -5.07134
   C        0.24570        17.02401        -4.07773
   C        1.21732        17.88270        -3.66062
   C        1.29071        19.21479        -4.12480
   N        1.35595        20.29982        -4.48864
   C        2.25493        17.50065        -2.78038
   N        3.13421        17.20560        -2.10793
   C       -1.22619        18.32927        -5.87957
   C       -2.28159        17.94021        -6.67793
   S       -2.74484        16.27003        -6.44750
   C       -2.98179        18.74516        -7.62177
   N       -2.74857        19.99359        -7.90262
   C       -3.66740        20.32710        -8.86028
   C       -4.43830        19.21781        -9.11764
   O       -4.00980        18.21858        -8.33959
   C       -3.73837        21.65946        -9.44940
   O       -4.53074        21.99155       -10.29185
   H       -4.16475        -0.65112        -1.33055
   H       -1.61187        -2.16464         1.47209
   H        0.13171         2.36805         1.34895
   H        1.78391         8.35937         0.72953
   H        4.90662        14.58559         2.63453
   H        5.03807        12.31996         3.59897
   H        1.40731        14.92891        -2.07267
   H       -0.82611        19.32566        -5.90584
   H       -5.25661        19.04354        -9.78527
   H       -2.98088        22.34930        -9.03996
*
