# ORCA input file
# SCF done       -192.058634230386          0.000474247665
! CAM-B3LYP def2-SVP def2/J RIJCOSX Grid4 TightSCF
%maxcore 5000
%tddft
    Mode sTDDFT
    Ethresh 5.0
    maxcore 5000
end

%pal
  nprocs 6
  end
* xyz 0 1
   C       -3.98336        -0.16102        -1.66806
   C       -2.82106        -0.01836        -0.77820
   O       -2.26805        -0.86265        -0.11188
   C       -2.43304         1.41981        -0.86478
   C       -3.30049         2.10333        -1.72800
   C       -4.30855         1.15216        -2.26804
   O       -5.20824         1.38812        -3.03851
   C       -3.12137         3.45625        -1.95684
   C       -2.07996         4.13637        -1.33112
   C       -1.22414         3.46289        -0.48183
   C       -1.39902         2.10149        -0.24651
   F       -0.55355         1.48088         0.57697
   F       -3.93077         4.13345        -2.77405
   C       -4.72813        -1.24614        -2.02598
   C       -4.65243        -2.59657        -1.63607
   C       -3.85629        -3.24852        -0.70068
   C       -4.11784        -4.61033        -0.65048
   C       -5.12120        -5.01770        -1.56412
   S       -5.74877        -3.71757        -2.45854
   C       -5.29220        -6.41528        -1.46329
   C       -4.40197        -6.90055        -0.48199
   C       -3.64656        -5.78387         0.06755
   C       -2.71118        -5.84455         1.05686
   C       -2.34908        -7.06640         1.66572
   N       -2.04644        -8.05251         2.16637
   C       -2.04126        -4.71096         1.56868
   N       -1.48380        -3.81849         2.02181
   C       -4.48304        -8.27456        -0.31305
   C       -5.42464        -8.85243        -1.15769
   S       -6.22357        -7.65991        -2.17450
   C       -5.77492       -10.22424        -1.28107
   C       -5.20572       -11.27347        -0.50702
   C       -5.58109       -12.64838        -0.68878
   N       -5.00452       -13.59629         0.07789
   C       -4.11742       -13.25253         0.96720
   C       -3.74945       -11.90389         1.14571
   N       -4.28483       -10.95922         0.42674
   C       -6.54588       -13.04876        -1.65460
   C       -7.11542       -12.00252        -2.40716
   C       -6.74059       -10.62703        -2.22466
   N       -7.41118        -9.82089        -3.05127
   S       -8.40462       -10.69444        -3.95801
   N       -8.04240       -12.13744        -3.35858
   C       -6.94186       -14.39378        -1.88663
   C       -6.48596       -15.54878        -1.26043
   C       -7.10457       -16.68895        -1.75094
   C       -8.04465       -16.40911        -2.76521
   S       -8.15905       -14.73859        -3.10893
   C       -8.61415       -17.62870        -3.19016
   C       -8.04001       -18.68854        -2.44542
   C       -7.06438       -18.12666        -1.52471
   C       -6.26201       -18.78774        -0.64350
   C       -6.25210       -20.19303        -0.49889
   N       -6.20338       -21.32919        -0.35891
   C       -5.35371       -18.10427         0.19475
   N       -4.61216       -17.56202         0.88088
   C       -8.55438       -19.93221        -2.78350
   C       -9.51412       -19.84680        -3.78637
   S       -9.76924       -18.17446        -4.30880
   C      -10.28352       -20.82985        -4.43660
   C      -10.37194       -22.17786        -4.24879
   C      -11.28055       -22.95705        -5.11908
   O      -11.96741       -22.52387        -6.01314
   C      -11.16709       -24.36753        -4.66086
   C      -10.26531       -24.43669        -3.58993
   C       -9.72591       -23.07961        -3.28318
   O       -8.93206       -22.81295        -2.41065
   C      -10.00158       -25.65608        -2.99023
   C      -10.62961       -26.80963        -3.45314
   C      -11.51635       -26.74139        -4.50973
   C      -11.78729       -25.51772        -5.11610
   F      -12.64963       -25.48275        -6.13431
   F       -9.15179       -25.75699        -1.96760
   H       -1.95378         5.19064        -1.52107
   H       -0.41290         3.97830         0.00786
   H       -5.50833        -1.02185        -2.75034
   H       -3.12628        -2.72603        -0.10667
   H       -3.90594        -8.86550         0.37310
   H       -3.68769       -14.05181         1.55456
   H       -3.01797       -11.59622         1.87974
   H       -5.73994       -15.51273        -0.48891
   H       -8.27177       -20.87169        -2.34032
   H      -10.92725       -20.45585        -5.23002
   H      -10.41208       -27.75146        -2.97443
   H      -12.00822       -27.62842        -4.87679
*
