# ORCA input file
# SCF done       -167.568467007257          0.000349039956
! CAM-B3LYP def2-SVP def2/J RIJCOSX Grid4 TightSCF
%maxcore 5000
%tddft
    Mode sTDDFT
    Ethresh 5.0
    maxcore 5000
end

%pal
  nprocs 6
  end
* xyz 0 1
   C        1.55854        -1.23266        -2.57742
   C        0.35734        -1.28920        -1.95693
   C        0.13710        -0.99412        -0.49656
   O        0.56117        -1.68974         0.38735
   O       -0.59866         0.09771        -0.33498
   C       -0.89316         0.48068         1.00828
   C       -0.79425        -1.71979        -2.63834
   N       -1.74669        -2.06325        -3.17849
   C        2.76693        -0.74641        -2.00529
   C        2.95953        -0.02252        -0.84125
   C        4.30026         0.27669        -0.62537
   C        5.14687        -0.21893        -1.63841
   S        4.27993        -1.04000        -2.85385
   C        6.48189         0.13289        -1.32639
   C        6.47672         0.85002        -0.10972
   C        5.10712         0.96800         0.36482
   C        4.66466         1.60179         1.48900
   C        5.54417         2.24393         2.38679
   N        6.25408         2.76849         3.11824
   C        3.29325         1.66813         1.81237
   N        2.17585         1.73496         2.06223
   C        7.74473         1.25010         0.28403
   C        8.72052         0.84989        -0.62292
   S        8.05119        -0.03996        -1.98206
   C       10.11259         1.10483        -0.54150
   C       10.99359         0.66800        -1.55682
   C       12.40724         0.93787        -1.52037
   N       13.18689         0.50414        -2.51621
   C       12.66501        -0.16339        -3.51683
   C       11.25835        -0.43182        -3.55318
   N       10.47866        -0.01285        -2.58576
   C       10.69099        -1.15148        -4.63385
   N       10.25634        -1.73322        -5.51926
   C       13.50972        -0.61515        -4.56093
   N       14.16972        -0.99026        -5.41818
   C       13.01411         1.65461        -0.46407
   C       12.13880         2.07680         0.56485
   C       10.71806         1.80935         0.52604
   N       10.10023         2.30713         1.59802
   S       11.16966         3.02687         2.54897
   N       12.47562         2.75449         1.66285
   C       14.40545         1.92649        -0.46949
   C       15.12365         2.61410         0.50381
   C       16.46718         2.71954         0.17865
   C       16.78018         2.10942        -1.05589
   S       15.41586         1.40082        -1.80633
   C       18.16180         2.28277        -1.29635
   C       18.72814         2.99564        -0.21484
   C       17.67579         3.30570         0.73857
   C       17.78324         4.02120         1.89393
   C       18.99337         4.61157         2.32007
   N       19.95553         5.12439         2.67332
   C       16.67312         4.25032         2.73582
   N       15.77570         4.44074         3.42340
   C       20.09605         3.19551        -0.34734
   C       20.59161         2.65897        -1.52710
   S       19.31701         1.88784        -2.47941
   C       21.88690         2.65631        -2.09996
   C       23.07929         3.08989        -1.60299
   C       23.37744         3.56851        -0.22830
   O       22.73959         3.30658         0.76138
   O       24.49028         4.30488        -0.22083
   C       24.91272         4.78605         1.04721
   C       24.20039         3.04049        -2.46071
   N       25.10282         2.98915        -3.16669
   H        1.62143        -1.57577        -3.60315
   H       -1.18737        -0.39304         1.59160
   H       -1.70785         1.19675         0.94474
   H       -0.01548         0.94082         1.46774
   H        2.16209         0.28736        -0.19456
   H        7.98648         1.80463         1.17208
   H       14.65355         3.00226         1.38851
   H       20.71728         3.68631         0.37814
   H       21.91858         2.26479        -3.11237
   H       25.14393         3.94988         1.71021
   H       24.12635         5.39008         1.50489
   H       25.80014         5.38454         0.86107
*
