# ORCA input file
# SCF done       -184.198531290121          0.000967213767
! CAM-B3LYP def2-SVP def2/J RIJCOSX Grid4 TightSCF
%maxcore 5000
%tddft
    Mode sTDDFT
    Ethresh 5.0
    maxcore 5000
end

%pal
  nprocs 6
  end
* xyz 0 1
   C       -0.00679         3.94823        -0.60711
   C        0.57788         4.63792        -1.66135
   C        1.65782         4.10570        -2.35354
   C        2.13548         2.86817        -1.96305
   C        1.54640         2.17308        -0.89931
   C        0.47101         2.70564        -0.21205
   C        2.24138         0.88194        -0.68039
   O        1.96835         0.06427         0.17240
   C        3.31114         0.83006        -1.69746
   C        3.25598         2.07367        -2.50995
   O        3.98984         2.36132        -3.42877
   C        4.27271        -0.09193        -1.97032
   C        4.56459        -1.33652        -1.37011
   C        3.93246        -2.03896        -0.35192
   C        4.57966        -3.23356        -0.06342
   C        5.72602        -3.45057        -0.86517
   S        5.98636        -2.19260        -1.97760
   C        6.33683        -4.66219        -0.47416
   C        5.57725        -5.22050         0.57696
   C        4.44407        -4.35037         0.85792
   C        3.46712        -4.56026         1.78482
   C        3.46644        -5.69823         2.62116
   N        3.46249        -6.61505         3.30975
   C        2.37852        -3.68220         1.98335
   N        1.47360        -3.00407         2.16826
   C        6.11324        -6.40681         1.05373
   C        7.27815        -6.76013         0.37926
   S        7.70494        -5.60777        -0.87582
   C        8.10371        -7.88224         0.64061
   C        9.28105        -8.11196        -0.10750
   C       10.17790        -9.20106         0.18033
   N       11.28062        -9.36001        -0.55877
   C       11.53945        -8.52952        -1.54005
   C       10.64845        -7.44475        -1.82497
   N        9.56372        -7.27219        -1.10861
   C       10.92635        -6.54659        -2.88495
   N       11.17608        -5.83401        -3.74585
   C       12.70842        -8.72039        -2.31754
   N       13.64942        -8.84525        -2.95797
   C        9.94490       -10.11580         1.23270
   C        8.74341        -9.91721         1.95428
   C        7.84195        -8.82424         1.66415
   N        6.78558        -8.83647         2.47769
   S        6.89992       -10.07331         3.48925
   N        8.29283       -10.66396         2.96288
   C       10.88293       -11.13326         1.53911
   C       10.78830       -12.07344         2.56079
   C       11.90471       -12.89329         2.61632
   C       12.86125       -12.58106         1.62574
   S       12.37540       -11.28101         0.62494
   C       13.96357       -13.44887         1.78741
   C       13.71320       -14.31127         2.88177
   C       12.40135       -13.99766         3.42476
   C       11.75361       -14.60524         4.45866
   C       12.28634       -15.69793         5.17816
   N       12.67485       -16.59422         5.77720
   C       10.47330       -14.18726         4.88349
   N        9.43622       -13.85098         5.23877
   C       14.76723       -15.17656         3.14495
   C       15.82380       -14.99462         2.26173
   S       15.48381       -13.72555         1.07973
   C       17.08211       -15.62861         2.16522
   C       17.67559       -16.56344         2.95460
   C       19.03859       -17.04143         2.60310
   O       19.69262       -16.69686         1.64451
   C       19.41678       -18.00593         3.65794
   C       20.58268       -18.73326         3.81220
   C       20.68631       -19.57748         4.91002
   C       19.64950       -19.68950         5.82729
   C       18.47760       -18.96015         5.67546
   C       18.37161       -18.11827         4.58349
   C       17.24407       -17.23712         4.19621
   O       16.20097       -17.11166         4.80161
   H       -0.84584         4.38645        -0.08725
   H        0.18587         5.60304        -1.94628
   H        2.11884         4.63439        -3.17363
   H        0.02407         2.16182         0.60596
   H        4.93518         0.18770        -2.78693
   H        3.05058        -1.66464         0.13946
   H        5.71477        -7.00758         1.85037
   H        9.93587       -12.11821         3.21319
   H       14.80170       -15.90580         3.93625
   H       17.69197       -15.30816         1.32306
   H       21.38316       -18.63940         3.09456
   H       21.58677       -20.15610         5.05392
   H       19.75791       -20.35425         6.67147
   H       17.66632       -19.03967         6.38267
*
