# ORCA input file
# SCF done       -180.651484620664          0.000588293979
! CAM-B3LYP def2-SVP def2/J RIJCOSX Grid4 TightSCF
%maxcore 5000
%tddft
    Mode sTDDFT
    Ethresh 5.0
    maxcore 5000
end

%pal
  nprocs 6
  end
* xyz 0 1
   C        0.79345         0.51570        -1.38330
   F        0.23074         1.54194        -0.74243
   C        1.75195         0.75264        -2.36399
   F        2.12248         1.99748        -2.66569
   C        2.31222        -0.33420        -3.02727
   F        3.23150        -0.13737        -3.97505
   C        1.92155        -1.62508        -2.70434
   F        2.50641        -2.63073        -3.37030
   C        0.96580        -1.90531        -1.71320
   C        0.41218        -0.78204        -1.07360
   F       -0.53749        -0.93489        -0.14469
   C        0.57795        -3.25259        -1.37617
   C       -0.04911        -3.69192        -0.22442
   C       -0.27579        -5.06704        -0.24004
   C        0.17445        -5.68303        -1.42448
   S        0.89110        -4.57721        -2.49761
   C       -0.09510        -7.07091        -1.35000
   C       -0.71677        -7.33275        -0.11417
   C       -0.84793        -6.08432         0.62381
   C       -1.38334        -5.91759         1.86739
   C       -1.90960        -6.99431         2.61236
   N       -2.34144        -7.85890         3.22957
   C       -1.43987        -4.65978         2.50424
   N       -1.48363        -3.64491         3.03612
   C       -1.01408        -8.67691         0.06846
   C       -0.62444        -9.45100        -1.01720
   S        0.11821        -8.48623        -2.28586
   C       -0.74183       -10.85879        -1.18874
   C       -1.30506       -11.74290        -0.22930
   C       -1.36781       -13.16343        -0.44106
   N       -1.91638       -13.94795         0.50764
   C       -2.37541       -13.40941         1.60171
   C       -2.30930       -12.01853         1.81175
   N       -1.79142       -11.22528         0.91783
   C       -0.86621       -13.77695        -1.62388
   C       -0.32877       -12.88950        -2.57924
   C       -0.26902       -11.46878        -2.36635
   N        0.28521       -10.83794        -3.40457
   S        0.68631       -11.91386        -4.52738
   N        0.18441       -13.23147        -3.76239
   C       -0.87068       -15.17474        -1.86742
   C       -1.33237       -16.19731        -1.04622
   C       -1.15400       -17.44808        -1.61754
   C       -0.54931       -17.39362        -2.89196
   S       -0.20600       -15.79695        -3.37921
   C       -0.39649       -18.71764        -3.37813
   C       -0.91485       -19.59999        -2.41397
   C       -1.40235       -18.83990        -1.27844
   C       -1.96169       -19.33041        -0.13290
   C       -2.12723       -20.71504         0.07008
   N       -2.25260       -21.84528         0.22535
   C       -2.40138       -18.49650         0.91537
   N       -2.76320       -17.83063         1.77616
   C       -0.81715       -20.93656        -2.79998
   C       -0.23151       -21.07823        -4.04346
   S        0.17244       -19.53115        -4.77100
   C        0.04536       -22.27346        -4.79895
   C        0.06536       -23.54748        -4.29279
   O        0.28253       -24.62968        -5.05662
   C        0.47815       -24.51343        -6.38886
   C        0.64200       -25.68352        -7.13229
   C        0.85921       -25.59625        -8.48898
   C        0.91999       -24.35483        -9.12165
   C        0.76307       -23.20066        -8.39163
   C        0.53641       -23.26429        -7.01248
   C        0.37238       -22.05669        -6.21185
   O        0.50746       -20.92942        -6.67626
   C       -0.09594       -23.93853        -2.86135
   H       -0.31228        -3.05160         0.59629
   H       -1.48488        -9.11145         0.93007
   H       -2.80652       -14.08395         2.32825
   H       -2.68353       -11.55177         2.71232
   H       -1.76930       -15.99581        -0.08614
   H       -1.19040       -21.74848        -2.20957
   H        0.59421       -26.63418        -6.62551
   H        0.98458       -26.49884        -9.06722
   H        1.09212       -24.30447       -10.18550
   H        0.80711       -22.22507        -8.85088
   H       -1.14481       -23.92492        -2.56772
   H        0.45611       -23.26550        -2.21027
   H        0.27493       -24.95331        -2.73590
*
