# ORCA input file
# SCF done       -189.706239457298          0.000719512528
! CAM-B3LYP def2-SVP def2/J RIJCOSX Grid4 TightSCF
%maxcore 5000
%tddft
    Mode sTDDFT
    Ethresh 5.0
    maxcore 5000
end

%pal
  nprocs 6
  end
* xyz 0 1
   C        4.92623        -5.97040         2.12568
   C        5.76069        -7.02347         2.37611
   F        7.03709        -6.80437         2.72229
   C        5.29350        -8.34840         2.27331
   F        6.13417        -9.36290         2.52361
   C        3.99762        -8.60236         1.92081
   C        3.11420        -7.53872         1.65400
   C        3.58498        -6.19842         1.75851
   C        2.71704        -5.11375         1.49244
   C        1.42074        -5.36254         1.12779
   C        0.96160        -6.70448         1.02135
   C        1.77211        -7.77136         1.27785
   C       -0.45213        -6.69957         0.59300
   O       -1.15039        -7.68183         0.42029
   C       -0.81443        -5.28954         0.41391
   C        0.31560        -4.46716         0.78493
   C        0.36901        -3.09644         0.84346
   C       -0.68919        -2.20880         0.55735
   N       -1.48533        -1.40502         0.35558
   C        1.51476        -2.36914         1.22657
   N        2.41082        -1.71647         1.52691
   C       -2.01031        -4.82341        -0.08416
   C       -3.15332        -5.51808        -0.47768
   C       -4.27090        -4.82877        -1.02087
   O       -4.20668        -3.49702        -1.16466
   C       -5.33870        -2.83520        -1.68610
   C       -5.32144        -5.66947        -1.34898
   C       -5.04994        -7.00408        -1.05990
   S       -3.47130        -7.23404        -0.38507
   C       -5.92749        -8.09966        -1.27886
   C       -5.55797        -9.40604        -0.87754
   C       -6.40658       -10.53807        -1.07172
   N       -5.98386       -11.75029        -0.67797
   C       -4.81184       -11.88023        -0.12155
   C       -3.97685       -10.75942         0.06940
   N       -4.35736        -9.57089        -0.29984
   C       -7.70244       -10.43323        -1.64457
   C       -8.04510        -9.14730        -2.11990
   C       -7.17974        -7.99808        -1.92533
   N       -7.70198        -6.89767        -2.47168
   S       -9.09926        -7.26846        -3.17184
   N       -9.12982        -8.82618        -2.82318
   C       -8.53252       -11.58227        -1.68229
   C       -9.93132       -11.68860        -1.81224
   O      -10.69678       -10.59195        -1.89142
   C      -12.09379       -10.76817        -1.97259
   C      -10.37939       -13.01173        -1.77658
   C       -9.36672       -13.93287        -1.57462
   S       -7.81742       -13.14077        -1.44578
   C       -9.51125       -15.33521        -1.50011
   C       -8.64726       -16.24138        -0.95826
   C       -8.69846       -17.66370        -1.38272
   O       -9.59274       -18.21441        -1.98291
   C       -7.39766       -18.23373        -0.96865
   C       -6.88687       -19.47505        -1.21584
   C       -5.59555       -19.79489        -0.73856
   C       -4.85413       -18.81586        -0.01521
   C       -3.56504       -19.14032         0.45305
   C       -3.03823       -20.37921         0.21844
   C       -3.77300       -21.34747        -0.49474
   C       -5.02474       -21.06266        -0.96391
   F       -3.23153       -22.55419        -0.71051
   F       -1.81312       -20.68546         0.66608
   C       -5.41237       -17.54122         0.23334
   C       -6.66786       -17.25655        -0.23202
   C       -7.50651       -16.07115        -0.08421
   C       -7.37087       -15.12193         0.89556
   C       -8.39049       -14.20138         1.21706
   N       -9.22808       -13.49094         1.55088
   C       -6.22836       -14.98632         1.70422
   N       -5.29235       -14.80385         2.34477
   H        5.29983        -4.96181         2.20951
   H        3.65540        -9.62266         1.84618
   H        3.10631        -4.11256         1.57941
   H        1.39637        -8.77947         1.19072
   H       -2.10285        -3.75220        -0.22067
   H       -5.07748        -1.77895        -1.70236
   H       -6.21411        -2.98851        -1.04884
   H       -5.56360        -3.17661        -2.70061
   H       -6.25661        -5.36409        -1.77907
   H       -4.52317       -12.87289         0.19306
   H       -3.00332       -10.83734         0.53017
   H      -12.48222       -11.28207        -1.08806
   H      -12.37361       -11.32384        -2.87243
   H      -12.51212        -9.76473        -2.02339
   H      -11.41178       -13.30441        -1.83738
   H      -10.37202       -15.75949        -2.00843
   H       -7.45948       -20.20481        -1.76769
   H       -2.99072       -18.41208         1.00417
   H       -5.57405       -21.81496        -1.50803
   H       -4.83064       -16.81645         0.78044
*
