# ORCA input file
# SCF done       -204.029989099767          0.000914522553
! CAM-B3LYP def2-SVP def2/J RIJCOSX Grid4 TightSCF
%maxcore 5000
%tddft
    Mode sTDDFT
    Ethresh 5.0
    maxcore 5000
end

%pal
  nprocs 6
  end
* xyz 0 1
   C        3.63468        -2.22064         2.86099
   O        2.88431        -3.06859         3.30993
   C        4.34094        -1.18374         3.63551
   C        5.09745        -0.38343         2.76088
   C        5.85422         0.65767         3.27195
   C        5.84179         0.88014         4.64495
   C        5.08506         0.07977         5.50375
   C        4.32361        -0.96550         4.99716
  Br        5.08697         0.40577         7.36476
  Br        6.87864         2.29859         5.34154
   C        4.90538        -0.86595         1.39305
   C        5.44483        -0.29239         0.27306
   C        6.28474         0.84283         0.29508
   N        6.96929         1.76226         0.24951
   C        5.23796        -0.72450        -1.05514
   N        5.11460        -1.00766        -2.16069
   C        4.02866        -2.02144         1.46370
   C        3.66749        -2.82605         0.41172
   C        2.83821        -3.95598         0.37512
   C        2.63434        -4.68028        -0.80810
   C        1.78407        -5.75290        -0.63171
   C        1.31412        -5.84977         0.70191
   S        1.93503        -4.64229         1.72663
   C        0.45513        -6.97234         0.78252
   C        0.38473        -7.58553        -0.48457
   C        1.21411        -6.83935        -1.41524
   C        1.41476        -7.10658        -2.73697
   C        0.79931        -8.20070        -3.38252
   N        0.30157        -9.08782        -3.91111
   C        2.25241        -6.30920        -3.54631
   N        2.93665        -5.66610        -4.20345
   C       -0.43463        -8.70910        -0.49735
   C       -0.99633        -8.95571         0.74567
   S       -0.49820        -7.77169         1.94496
   C       -1.87939       -10.03191         1.07824
   C       -2.49273       -10.16693         2.31842
   F       -2.26142        -9.25321         3.27728
   C       -3.36182       -11.21183         2.64631
   F       -3.88240       -11.19694         3.88616
   C       -3.69498       -12.24240         1.77530
   C       -3.08235       -12.14829         0.49283
   C       -2.20060       -11.06343         0.14955
   N       -1.75161       -11.17621        -1.09859
   S       -2.36705       -12.49259        -1.77473
   N       -3.23442       -12.99435        -0.52365
   C       -4.57811       -13.31453         2.12013
   C       -4.84978       -14.43427         1.34908
   C       -5.75928       -15.28453         1.96766
   C       -6.19338       -14.80428         3.21872
   S       -5.46640       -13.32155         3.63518
   C       -7.12815       -15.72459         3.74975
   C       -7.27305       -16.79744         2.84494
   C       -6.41430       -16.55463         1.69692
   C       -6.24947       -17.34929         0.60174
   C       -6.92938       -18.57800         0.45802
   N       -7.46989       -19.58166         0.34034
   C       -5.37898       -17.00137        -0.45394
   N       -4.67038       -16.72669        -1.31202
   C       -8.17091       -17.75913         3.29070
   C       -8.75357       -17.41478         4.50267
   S       -8.11448       -15.89250         5.12457
   C       -9.67718       -18.20401         5.22270
   C      -10.52873       -17.85050         6.22516
   C      -11.05409       -18.90026         7.14027
   O      -10.99079       -20.09611         6.98930
   C      -11.60808       -18.15564         8.29358
   C      -11.54570       -16.77334         8.03599
   C      -11.02013       -16.56993         6.68737
   C      -11.23832       -15.45762         5.91843
   C      -10.98960       -15.41499         4.53057
   N      -10.84039       -15.36367         3.39385
   C      -11.82609       -14.27135         6.40460
   N      -12.28384       -13.28208         6.76208
   C      -11.98331       -15.87191         8.99045
   C      -12.48537       -16.36636        10.18919
   C      -12.55900       -17.74030        10.43188
   C      -12.11534       -18.64791         9.47804
  Br      -13.26064       -18.38415        12.06376
  Br      -13.07035       -15.13944        11.50179
   H        6.45276         1.29673         2.64355
   H        3.73489        -1.59192         5.64916
   H        4.08582        -2.58018        -0.55691
   H        3.10545        -4.40547        -1.73538
   H       -0.63121        -9.33508        -1.34762
   H       -4.39433       -14.59022         0.38902
   H       -8.43161       -18.65757         2.76088
   H       -9.65469       -19.26596         4.99418
   H      -11.93621       -14.80584         8.83549
   H      -12.16722       -19.71068         9.65677
*
