# ORCA input file
# SCF done       -120.078908613734          0.000828721404
! CAM-B3LYP def2-SVP def2/J RIJCOSX Grid4 TightSCF
%maxcore 5000
%tddft
    Mode sTDDFT
    Ethresh 5.0
    maxcore 5000
end

%pal
  nprocs 6
  end
* xyz 0 1
   C        1.39395        -3.87100        -0.63603
   S        1.83302        -2.60266        -1.69370
   C        3.14266        -2.10293        -0.65221
   C        3.20213        -2.91116         0.47463
   C        2.19442        -3.92429         0.47275
   C        2.03714        -4.87422         1.50188
   N        1.90114        -5.65221         2.33094
   C        4.09451        -2.77224         1.55034
   N        4.78462        -2.69207         2.46282
   C        3.94332        -0.99957        -1.05304
   C        5.08587        -0.58612        -0.44780
   C        5.86224         0.51824        -0.86890
   C        7.08944         0.94314        -0.38503
   C        7.48782         2.09989        -1.11272
   C        6.46279         2.39339        -2.07426
   O        6.38094         3.29417        -2.90486
   N        5.51946         1.40473        -1.88100
   C        8.72208         2.50171        -0.62425
   O        9.10573         1.64430         0.36683
   C        8.14023         0.64776         0.56600
   O        8.28782        -0.21315         1.38247
   C        9.59613         3.54802        -0.92777
   S       11.07531         3.61822         0.00106
   C       11.58277         5.03964        -0.84785
   C       10.64305         5.43350        -1.80608
   C        9.50685         4.59406        -1.86601
   O        8.52450         4.83389        -2.72578
   O       10.93553         6.53432        -2.53032
   C       10.03617         7.00262        -3.51744
   C       12.79173         5.70719        -0.59013
   S       13.21522         7.14787        -1.47416
   C       14.72673         7.33705        -0.61176
   C       14.86403         6.30884         0.30719
   C       13.78889         5.38633         0.33266
   C       13.98493         4.35474         1.28854
   C       15.15305         4.47799         1.96336
   C       15.69678         3.59481         3.02326
   S       16.08368         5.88001         1.46012
   C       15.59002         8.42066        -0.90042
   C       16.88278         8.66598        -0.20771
   C       17.44918         9.76177        -0.70605
   C       16.55389        10.31795        -1.77494
   O       16.74953        11.30661        -2.44422
   C       15.40597         9.40057        -1.82369
   H        0.57170        -4.51724        -0.87312
   H        3.58766        -0.49051        -1.93989
   H        5.47715        -1.11482         0.40923
   H        4.66509         1.36591        -2.41336
   H        7.74723         4.20458        -2.73150
   H       10.51357         7.88748        -3.93496
   H        9.07250         7.27129        -3.08201
   H        9.88322         6.25879        -4.30092
   H       13.28472         3.55850         1.46109
   H       15.87821         4.16035         3.93686
   H       16.64634         3.16164         2.70901
   H       14.99580         2.79202         3.23654
   H       17.25870         8.02791         0.57109
   H       18.38137        10.21622        -0.43041
   H       14.57409         9.51508        -2.49178
*
