# ORCA input file
# SCF done       -134.617852639130          0.000854683428
! CAM-B3LYP def2-SVP def2/J RIJCOSX Grid4 TightSCF
%maxcore 5000
%tddft
    Mode sTDDFT
    Ethresh 5.0
    maxcore 5000
end

%pal
  nprocs 6
  end
* xyz 0 1
   C        0.71220        -4.49441         5.78239
   S        0.49244        -3.91883         4.17947
   C       -0.68019        -5.14783         3.79059
   C       -0.85682        -5.95328         4.90039
   C       -0.07482        -5.58104         6.01497
   O       -0.12795        -6.27209         7.19351
   C       -0.94750        -7.34100         7.29086
   O       -1.00000        -7.96277         8.31070
   C       -1.80812        -7.74019         6.07732
   O       -2.55442        -8.67344         6.13550
   O       -1.71063        -7.01977         4.94197
   C       -1.34134        -5.28590         2.53995
   C       -1.24958        -4.52182         1.38361
   C       -0.34041        -3.35216         1.18204
   C        1.06098        -3.81161         0.77565
   C       -2.09190        -4.99257         0.37258
   C       -2.83798        -6.10165         0.71875
   S       -2.48659        -6.58809         2.34849
   C       -3.79899        -6.82538        -0.03748
   C       -4.17786        -6.51931        -1.30072
   C       -5.16214        -7.22374        -2.04004
   C       -5.64252        -6.91493        -3.30949
   C       -5.19268        -5.73918        -4.11983
   C       -5.91650        -4.46464        -3.67914
   C       -6.64068        -7.79304        -3.73256
   C       -6.94250        -8.78900        -2.82275
   S       -5.95730        -8.63302        -1.39941
   C       -7.88736        -9.84534        -2.90625
   C       -8.80182        -9.97938        -3.89654
   C       -9.76759       -11.03442        -3.99419
   S      -11.27078       -10.44087        -4.72351
   C      -11.96022       -11.89817        -5.42254
   C      -12.73378       -11.90695        -6.54030
   S      -13.29721       -13.48755        -6.91671
   C      -12.46054       -14.14733        -5.56615
   C      -11.80257       -13.19073        -4.85892
   S      -10.88567       -13.51257        -3.39555
   C       -9.56921       -12.31069        -3.54689
   C       -8.27506       -12.79067        -3.18748
   C       -8.01471       -13.92986        -2.50971
   C       -6.67263       -14.33870        -2.21387
   N       -5.65708       -13.56260        -2.55733
   N       -4.40900       -13.87625        -2.31748
   C       -4.06155       -14.97857        -1.71091
   C       -5.03895       -15.89964        -1.27916
   C       -6.40798       -15.56818        -1.54229
   N       -7.24677       -16.50020        -1.10172
   S       -6.38641       -17.67752        -0.41985
   N       -4.91671       -17.06816        -0.65025
   H        1.38944        -4.01038         6.45327
   H       -0.28005        -2.75560         2.09395
   H       -0.75288        -2.72230         0.39179
   H        1.50148        -4.43151         1.55199
   H        1.70448        -2.95121         0.61437
   H        1.01492        -4.39074        -0.14399
   H       -2.15077        -4.52296        -0.59295
   H       -4.25792        -7.67088         0.45789
   H       -3.72656        -5.67452        -1.80059
   H       -5.41092        -5.93101        -5.17184
   H       -4.11418        -5.60259        -4.02036
   H       -6.99117        -4.58133        -3.79803
   H       -5.59132        -3.61863        -4.27983
   H       -5.71119        -4.24992        -2.63281
   H       -7.12592        -7.70936        -4.68855
   H       -7.87453       -10.55288        -2.08914
   H       -8.90054        -9.19474        -4.63407
   H      -13.01502       -11.07182        -7.14854
   H      -12.51413       -15.19549        -5.35466
   H       -7.42623       -12.20364        -3.51111
   H       -8.80058       -14.57597        -2.14616
   H       -3.00683       -15.14649        -1.55860
*
