# ORCA input file
# SCF done       -135.173483616724          0.000651465209
! CAM-B3LYP def2-SVP def2/J RIJCOSX Grid4 TightSCF
%maxcore 5000
%tddft
    Mode sTDDFT
    Ethresh 5.0
    maxcore 5000
end

%pal
  nprocs 6
  end
* xyz 0 1
   C       -2.03811         3.40160         2.27314
   O       -3.13777         2.69162         1.99003
   C       -3.10563         2.41511         0.67370
   C       -1.99381         2.93807         0.10054
   C       -1.27428         3.59720         1.14561
   C       -0.03257         4.29939         0.99321
   C        0.62379         4.95113         1.97613
   C        1.84567         5.64726         1.76648
   C        2.48680         6.33897         2.74068
   C        3.69258         7.06475         2.57065
   S        4.34335         7.97079         3.93208
   C        5.65566         8.51872         2.98044
   C        5.59226         8.01793         1.67742
   C        4.49291         7.20326         1.44346
   C        6.75875         8.54168         0.94243
   O        7.06060         8.33551        -0.20906
   C        7.48954         9.39598         1.95873
   C        6.79338         9.34674         3.14822
   C        8.67738        10.11418         1.72158
   C        9.34954        10.11786         0.53195
   C       10.54173        10.81923         0.27609
   S       11.29128        10.65603        -1.31000
   C       12.56985        11.69259        -0.84502
   C       12.41733        12.14918         0.47371
   C       11.28672        11.66324         1.10359
   C       13.57014        13.02507         0.76497
   O       13.82627        13.63262         1.77573
   C       14.39270        13.00106        -0.50324
   C       13.75073        12.20156        -1.42915
   C       15.60845        13.70218        -0.58160
   C       16.45789        13.67050        -1.65223
   C       17.69603        14.33132        -1.73050
   S       18.70580        14.07048        -3.15197
   C       19.92466        15.08173        -2.50800
   C       19.55975        15.60697        -1.26035
   C       18.31683        15.19017        -0.82063
   C       20.68156        16.45757        -0.80584
   O       20.77609        17.10969         0.20402
   C       21.71604        16.33608        -1.90152
   C       21.21576        15.51720        -2.89038
   C       22.96073        16.98983        -1.79288
   C       23.99016        16.86984        -2.67671
   C       25.23806        17.51687        -2.52849
   O       25.45522        18.35461        -1.48417
   C       26.71201        18.80968        -1.58735
   C       27.33934        18.29279        -2.67584
   C       26.39714        17.43946        -3.31546
   C       26.57324        16.65349        -4.49616
   C       27.71305        16.57341        -5.20967
   C       27.84938        15.76353        -6.38736
   C       28.97593        15.67005        -7.09385
   H       -1.90297         3.70685         3.29133
   H       -3.92084         1.84707         0.27148
   H       -1.70614         2.87664        -0.92883
   H        0.38435         4.29459        -0.00565
   H        0.21370         4.96546         2.97659
   H        2.25867         5.61934         0.76779
   H        2.05547         6.36400         3.73332
   H        4.27821         6.72884         0.50406
   H        7.06427         9.85183         4.05759
   H        9.06226        10.68636         2.55678
   H        8.95166         9.53339        -0.28520
   H       11.00202        11.89922         2.11234
   H       14.07855        11.98864        -2.42971
   H       15.86724        14.27605         0.29779
   H       16.18613        13.07390        -2.51259
   H       17.86670        15.48254         0.10991
   H       21.70744        15.24150        -3.80502
   H       23.08853        17.61251        -0.91716
   H       23.88405        16.23791        -3.54549
   H       27.04572        19.49285        -0.83071
   H       28.34387        18.49297        -2.98520
   H       25.71420        16.08144        -4.82181
   H       28.58714        17.13065        -4.90332
   H       26.97242        15.20664        -6.69260
   H       29.86362        16.21187        -6.81183
   H       29.04895        15.05315        -7.97233
*
