# ORCA input file
# SCF done       -126.096987822728          0.000447715410
! CAM-B3LYP def2-SVP def2/J RIJCOSX Grid4 TightSCF
%maxcore 5000
%tddft
    Mode sTDDFT
    Ethresh 5.0
    maxcore 5000
end

%pal
  nprocs 6
  end
* xyz 0 1
   C       -6.98391        -2.97212        -2.23056
   C       -7.01231        -2.98104        -0.81623
   C       -8.22715        -2.92009        -0.17262
   C       -9.42492        -2.85592        -0.90688
   C       -9.38130        -2.86899        -2.32908
   C       -8.12866        -2.92799        -2.97038
   N      -10.51703        -2.82521        -3.05550
   C      -11.64229        -2.75760        -2.39668
   C      -11.68640        -2.73196        -0.98666
   N      -10.60642        -2.78391        -0.25600
   C       -5.77579        -3.08304        -0.01771
   C       -4.59773        -2.33310        -0.31494
   C       -3.49716        -2.43030         0.50129
   C       -3.48472        -3.30518         1.60087
   C       -4.63911        -4.08977         1.87184
   C       -5.77261        -3.94464         1.05434
   N       -4.65098        -4.96659         2.89825
   C       -3.56758        -5.04856         3.62167
   C       -2.42609        -4.26045         3.35950
   N       -2.38123        -3.40822         2.37138
   C       -4.56690        -1.42832        -1.47748
   C       -3.49424        -1.47186        -2.41480
   C       -3.54241        -0.67359        -3.53371
   C       -4.61842         0.20137        -3.76105
   C       -5.64565         0.30145        -2.78336
   C       -5.59075        -0.52604        -1.65054
   N       -6.67022         1.16640        -2.94234
   C       -6.67543         1.88339        -4.03236
   C       -5.66275         1.77379        -5.01086
   N       -4.65455         0.95597        -4.88019
   C       -2.25158        -2.24432        -2.18136
   C       -2.19832        -3.65196        -1.98563
   C       -0.99689        -4.26197        -1.71299
   C        0.19675        -3.52440        -1.65062
   C        0.15116        -2.12189        -1.87632
   C       -1.08738        -1.51153        -2.13564
   N        1.27780        -1.37848        -1.83803
   C        2.39353        -2.00697        -1.58805
   C        2.43901        -3.40085        -1.36557
   N        1.36817        -4.14575        -1.39557
   C       -3.39140        -4.50713        -2.10500
   C       -3.67887        -5.42673        -1.06925
   C       -4.77152        -6.24019        -1.12489
   C       -5.61892        -6.19751        -2.25089
   C       -5.29628        -5.32952        -3.33069
   C       -4.18002        -4.47551        -3.22794
   N       -6.06681        -5.29411        -4.43901
   C       -7.12024        -6.06406        -4.45717
   C       -7.45894        -6.89839        -3.37137
   N       -6.72200        -6.97178        -2.29649
   H       -6.03370        -3.01839        -2.73438
   H       -8.29491        -2.89704         0.90419
   H       -8.09962        -2.93644        -4.04871
   H      -12.54875        -2.72340        -2.98644
   H      -12.62826        -2.67154        -0.45760
   H       -2.61807        -1.82974         0.32695
   H       -6.63665        -4.54989         1.28032
   H       -3.58303        -5.75494         4.44094
   H       -1.53792        -4.34048         3.97185
   H       -2.74960        -0.70214        -4.26592
   H       -6.37660        -0.43211        -0.91714
   H       -7.49853         2.57457        -4.15495
   H       -5.68826         2.37335        -5.91100
   H       -0.94075        -5.33046        -1.57135
   H       -1.10374        -0.44122        -2.27616
   H        3.29327        -1.40691        -1.56003
   H        3.37526        -3.90410        -1.16423
   H       -3.02271        -5.45404        -0.21189
   H       -5.01466        -6.92199        -0.32531
   H       -3.96198        -3.81334        -4.05286
   H       -7.73116        -6.03068        -5.34908
   H       -8.34750        -7.51489        -3.39406
*
