# ORCA input file
# SCF done       -145.785032761236          0.004746270486
! CAM-B3LYP def2-SVP def2/J RIJCOSX Grid4 TightSCF
%maxcore 5000
%tddft
    Mode sTDDFT
    Ethresh 5.0
    maxcore 5000
end

%pal
  nprocs 6
  end
* xyz 0 1
   C        2.02424        -7.19909        -1.20755
   N        3.07295        -7.95092        -1.19571
   C        4.06710        -7.21693        -0.64653
   C        3.62210        -5.94408        -0.33849
   N        2.26027        -5.94769        -0.66743
   C        1.29803        -4.94360        -0.56000
   O        1.54046        -3.76279        -0.56687
   N        0.00479        -5.42240        -0.42634
   C       -1.12873        -4.70354        -0.76539
   C       -2.18443        -5.46041        -0.37972
   N       -1.74518        -6.60835         0.22503
   C       -0.46004        -6.57469         0.18542
   C        4.43490        -4.89381         0.17452
   C        5.76476        -5.00771         0.55427
   C        6.22657        -3.70776         0.95791
   C        5.13281        -2.76977         0.79367
   O        5.04414        -1.57732         0.95181
   N        4.08080        -3.58251         0.34143
   C        7.53294        -3.85015         1.33214
   O        7.93047        -5.14094         1.19277
   C        6.86318        -5.91920         0.69701
   O        7.01075        -7.09025         0.47636
   S        8.66394        -2.69716         1.92324
   C       10.08997        -3.75437         2.08803
   C       10.35298        -4.48110         3.20600
   S       11.83578        -5.33103         3.08256
   C       12.10949        -4.70725         1.50517
   C       11.10525        -3.88641         1.09707
   S       11.06484        -3.04264        -0.46257
   C        9.58543        -3.75976        -1.07358
   C        8.61790        -3.02615        -1.64193
   C        7.40917        -3.57716        -2.15713
   S        7.28910        -5.27122        -2.51129
   C        5.64214        -5.14703        -3.02588
   C        5.17197        -3.84077        -2.86194
   C        6.19009        -2.93825        -2.39402
   C        5.85700        -1.57365        -2.16650
   C        6.80594        -0.61223        -1.75576
   N        7.53997         0.21687        -1.45756
   C        4.55755        -1.14354        -2.34442
   C        3.55267        -2.03568        -2.72153
   C        3.83616        -3.36407        -2.98099
   C        2.72332        -4.19186        -3.22942
   N        1.74107        -4.77797        -3.34417
   C        4.97272        -6.30325        -3.51534
   C        4.02993        -6.28504        -4.48611
   C        3.23691        -7.41066        -4.82844
   O        3.36224        -8.57149        -4.14732
   C        2.41920        -9.42141        -4.59928
   C        1.68156        -8.80744        -5.59454
   C        2.19868        -7.51394        -5.75066
   C        1.72011        -6.44998        -6.67307
   C        2.33726       -10.71760        -3.98584
   C        1.46264       -11.66435        -4.31669
   H        1.08331        -7.47664        -1.63724
   H        5.04915        -7.62021        -0.49385
   H       -1.05362        -3.76008        -1.26247
   H       -3.23213        -5.26500        -0.48231
   H        0.18918        -7.31199         0.61428
   H        3.16993        -3.21394         0.08597
   H        9.75741        -4.55663         4.09371
   H       12.99549        -4.97322         0.96473
   H        9.51373        -4.83094        -0.95287
   H        8.73060        -1.95281        -1.68512
   H        4.31009        -0.11135        -2.15300
   H        2.53221        -1.69096        -2.79306
   H        5.27066        -7.25478        -3.09626
   H        3.81851        -5.38143        -5.03831
   H        0.86582        -9.23699        -6.13895
   H        0.90099        -6.82088        -7.28199
   H        2.52351        -6.11574        -7.32822
   H        1.37131        -5.59150        -6.09897
   H        3.05479       -10.87634        -3.19327
   H        0.73862       -11.52328        -5.09968
   H        1.44789       -12.61316        -3.81078
*
