# ORCA input file
# SCF done       -136.287914609783          0.000343941346
! CAM-B3LYP def2-SVP def2/J RIJCOSX Grid4 TightSCF
%maxcore 5000
%tddft
    Mode sTDDFT
    Ethresh 5.0
    maxcore 5000
end

%pal
  nprocs 6
  end
* xyz 0 1
   C        0.93883        -2.23587        -4.00878
   S        0.95780        -0.75808        -4.95840
   C        2.67622        -0.98642        -5.38723
   O        3.31659        -0.24583        -6.07389
   N        3.12442        -2.13955        -4.80224
   C        2.23916        -2.87244        -4.03648
   O        2.55881        -3.91050        -3.48229
   C        4.49553        -2.56228        -4.98834
   C       -0.20495        -2.64411        -3.38098
   C       -0.45326        -3.77146        -2.58549
   S        0.74422        -4.95507        -2.15657
   C       -0.37609        -5.88230        -1.22530
   C       -1.66794        -5.31816        -1.26531
   C       -1.70723        -4.10484        -2.01627
   C       -2.93514        -3.40293        -2.11107
   C       -3.11633        -2.18666        -2.80771
   N       -3.37577        -1.20349        -3.34015
   C       -4.06916        -3.90985        -1.49349
   C       -4.03821        -5.12054        -0.81057
   C       -2.85786        -5.83671        -0.69959
   C       -2.93589        -7.10888        -0.08746
   N       -3.09885        -8.15222         0.35991
   C        0.03939        -7.01616        -0.49386
   C        1.26043        -7.59708        -0.64112
   C        1.72775        -8.70110         0.10752
   S        3.14827        -9.55991        -0.42692
   C        3.05746       -10.70251         0.88523
   C        1.97286       -10.40343         1.71005
   C        1.22975        -9.27567         1.27373
   C        0.15998        -8.76464         2.02990
   N       -0.67659        -8.34741         2.69453
   C        1.61335       -11.10226         2.87382
   N        1.28756       -11.64761         3.82958
   C        4.02437       -11.73217         0.95599
   C        4.06263       -12.71738         1.89346
   C        5.02385       -13.74685         1.93183
   C        6.05499       -14.07875         1.07506
   C        6.80437       -15.19823         1.48221
   O        7.78864       -15.48987         0.58633
   C        7.68447       -14.52334        -0.44764
   N        6.61964       -13.59011        -0.08792
   C        6.39638       -15.78964         2.64891
   S        5.01692       -14.89859         3.27047
   C        6.91815       -16.93210         3.30682
   S        8.28337       -17.78579         2.64998
   C        8.22909       -18.92854         3.96793
   C        7.20559       -18.63788         4.84463
   C        6.46828       -17.51464         4.47261
   C        9.13844       -19.97446         4.04927
   C        9.93816       -20.88326         4.10758
   C       10.84658       -21.94621         4.20727
   C       11.82578       -22.15925         3.33001
   H        4.69702        -2.71271        -6.04890
   H        4.62415        -3.49504        -4.44197
   H        5.17455        -1.80128        -4.60374
   H       -1.05569        -1.99127        -3.52582
   H       -4.99553        -3.36003        -1.56664
   H       -4.94225        -5.51519        -0.37262
   H       -0.66129        -7.42910         0.21585
   H        1.93042        -7.22507        -1.40647
   H        4.78787       -11.69955         0.19114
   H        3.32327       -12.73834         2.68043
   H        7.48909       -15.03740        -1.40177
   H        8.64231       -13.98720        -0.52231
   H        6.02205       -13.26579        -0.83242
   H        7.00981       -19.22860         5.72140
   H        5.63025       -17.12527         5.02307
   H       10.70520       -22.60096         5.05900
   H       11.97231       -21.51166         2.48190
   H       12.50605       -22.98606         3.43735
*
