# ORCA input file
# SCF done       -109.534272419662          0.000769787319
! CAM-B3LYP def2-SVP def2/J RIJCOSX Grid4 TightSCF
%maxcore 5000
%tddft
    Mode sTDDFT
    Ethresh 5.0
    maxcore 5000
end

%pal
  nprocs 6
  end
* xyz 0 1
   C       -4.65564        -1.06620         4.15734
   C       -5.57536        -0.37644         5.04489
   C       -6.14457         0.67002         4.41792
   C       -5.61320         0.72423         3.04344
   O       -5.85837         1.50402         2.15518
   C       -4.65024        -0.43968         2.95163
   C       -3.93888        -0.70703         1.77078
   S       -4.18947         0.33522         0.34481
   C       -3.04355        -0.64251        -0.47042
   C       -2.56750        -1.66213         0.37919
   N       -3.07183        -1.67783         1.59887
   C       -1.56088        -2.51815        -0.32099
   C       -1.51267        -1.86151        -1.66882
   C       -2.39957        -0.77081        -1.71284
   S       -2.38782         0.01525        -3.23419
   C       -1.17573        -1.11441        -3.82710
   C       -0.82791        -2.05163        -2.85258
   C       -0.70145        -0.97053        -5.14407
   C        0.27140        -1.75314        -5.70278
   C        0.77793        -1.61330        -7.00588
   C        0.43287        -0.50924        -7.91343
   C        1.11330        -0.61485        -9.05698
   C        1.96656        -1.82481        -8.99650
   O        2.65874        -2.25654        -9.88918
   C        1.72556        -2.41546        -7.64062
   C        2.31661        -3.61812        -7.19964
   S        1.55350        -4.61533        -5.96211
   C        2.78455        -5.83259        -6.05036
   C        3.73769        -5.47205        -6.97636
   C        3.49319        -4.23708        -7.63515
   C        4.55126        -3.92145        -8.53145
   C        5.52177        -4.86383        -8.56602
   C        6.75946        -4.86985        -9.38410
   S        5.20931        -6.21880        -7.48276
   C        2.73975        -6.98922        -5.23252
   N        1.84217        -7.28246        -4.33492
   C        2.23001        -8.48962        -3.81834
   C        3.38551        -8.87649        -4.45536
   O        3.71261        -7.93536        -5.34746
   C        1.47637        -9.16757        -2.77417
   O        1.78180       -10.22068        -2.27606
   H       -4.08055        -1.93180         4.42562
   H       -5.75222        -0.68733         6.05943
   H       -6.86071         1.36908         4.80350
   H       -1.88609        -3.55836        -0.37965
   H       -0.59399        -2.50229         0.18488
   H       -0.11169        -2.83361        -3.02524
   H       -1.16338        -0.18531        -5.72547
   H        0.69889        -2.53708        -5.09624
   H       -0.26388         0.26781        -7.65793
   H        1.08509         0.02989        -9.91464
   H        4.57287        -3.03690        -9.13830
   H        7.64073        -4.93133        -8.74577
   H        6.81487        -3.96328        -9.98111
   H        6.77216        -5.73248       -10.05003
   H        4.01157        -9.73929        -4.35915
   H        0.57208        -8.61063        -2.47106
*
