# ORCA input file
# SCF done       -145.960062859771          0.000876231404
! CAM-B3LYP def2-SVP def2/J RIJCOSX Grid4 TightSCF
%maxcore 5000
%tddft
    Mode sTDDFT
    Ethresh 5.0
    maxcore 5000
end

%pal
  nprocs 6
  end
* xyz 0 1
   C        3.06062        -4.65206         3.39945
   C        3.73547        -4.02767         4.52811
   C        3.10219        -2.89844         4.88269
   C        1.93128        -2.72440         4.00076
   O        1.00760        -1.95974         4.11482
   C        2.02740        -3.87443         3.00165
   C        1.05180        -4.09294         1.99681
   S        0.43128        -5.67703         1.67809
   C       -0.78368        -5.08882         0.57989
   C       -0.68430        -3.69373         0.44552
   C        0.38192        -3.14033         1.22342
   C        0.72756        -1.77121         1.07421
   C        1.93549        -1.25959         1.59760
   N        2.94595        -0.82881         1.92743
   C       -0.06388        -0.95180         0.29466
   C       -1.17594        -1.46467        -0.37560
   C       -1.47690        -2.81492        -0.33977
   C       -2.57809        -3.24601        -1.11057
   N       -3.48527        -3.52186        -1.75724
   C       -1.68173        -5.97481        -0.05430
   C       -1.67518        -7.32085         0.13620
   C       -2.52763        -8.19072        -0.51646
   C       -3.25980        -8.96154        -1.10959
   C       -4.03481        -9.89268        -1.77004
   S       -3.83993       -11.59455        -1.43065
   C       -5.04395       -11.99375        -2.63208
   C       -5.55213       -10.85663        -3.23375
   C       -4.98838        -9.68092        -2.74973
   C       -5.34376       -13.31709        -2.87516
   C       -5.52056       -14.51228        -3.03213
   C       -5.67502       -15.86977        -3.18394
   S       -6.59955       -16.58631        -4.45481
   C       -6.18207       -18.20763        -3.95297
   C       -5.40095       -18.17708        -2.77457
   C       -5.09673       -16.84976        -2.36135
   C       -4.29548       -16.61894        -1.22764
   C       -3.81750       -17.66831        -0.49676
   C       -2.95556       -17.47494         0.70701
   C       -4.17053       -19.00173        -0.87483
   O       -3.68129       -19.96642        -0.06752
   C       -3.98820       -21.31668        -0.34605
   C       -4.95490       -19.24592        -1.98050
   C       -6.60189       -19.27007        -4.76675
   C       -6.13311       -20.55135        -4.69468
   C       -6.56841       -21.61894        -5.49493
   S       -7.72815       -21.42134        -6.77829
   C       -7.64455       -23.10387        -7.23297
   C       -6.76122       -23.78784        -6.42161
   C       -6.15607       -22.95623        -5.43222
   N       -5.25976       -23.48788        -4.48946
   O       -4.86211       -22.77517        -3.57278
   O       -4.92267       -24.65172        -4.62457
   C       -6.50256       -25.16888        -6.53999
   N       -6.35300       -26.29590        -6.69438
   C       -8.46521       -23.52884        -8.33405
   C       -8.51835       -24.75026        -8.86279
   H        3.37993        -5.57169         2.94259
   H        4.61897        -4.44091         4.98120
   H        3.34691        -2.21171         5.66881
   H        0.19182         0.09123         0.18731
   H       -1.79256        -0.80419        -0.96676
   H       -2.40267        -5.54625        -0.73445
   H       -0.96435        -7.76923         0.82146
   H       -6.30602       -10.89865        -3.99948
   H       -5.24887        -8.69574        -3.09304
   H       -4.06988       -15.60081        -0.94713
   H       -2.77144       -16.41941         0.88605
   H       -2.00565       -17.98898         0.56983
   H       -3.43401       -17.91167         1.58217
   H       -3.45076       -21.89748         0.40109
   H       -3.65948       -21.61492        -1.34495
   H       -5.06079       -21.50794        -0.25014
   H       -5.24308       -20.25365        -2.21501
   H       -7.33057       -19.02822        -5.53308
   H       -5.34650       -20.79642        -4.00345
   H       -9.08146       -22.73896        -8.74673
   H       -7.92588       -25.56818        -8.49603
   H       -9.17181       -24.95727        -9.69215
*
