# ORCA input file
# SCF done       -150.804179969045          0.000479817886
! CAM-B3LYP def2-SVP def2/J RIJCOSX Grid4 TightSCF
%maxcore 5000
%tddft
    Mode sTDDFT
    Ethresh 5.0
    maxcore 5000
end

%pal
  nprocs 6
  end
* xyz 0 1
   C        9.19646        -0.43464        -6.16181
   C        9.02398        -0.51391        -4.83419
   C        9.65321         0.27468        -3.81629
   C        9.28174        -0.04494        -2.55467
   C        8.33783        -1.10352        -2.47470
   S        7.92877        -1.67909        -4.07287
   C        7.80358        -1.65451        -1.32635
   C        8.07075        -1.29910         0.01182
   C        7.41578        -2.06925         0.92897
   C        6.59687        -3.07349         0.37045
   S        6.66825        -2.98861        -1.37675
   C        5.90081        -4.01916         1.10270
   C        5.11586        -5.07086         0.65601
   C        4.59779        -6.10337         1.46028
   C        3.93398        -7.03549         0.64992
   C        3.99641        -6.56392        -0.72739
   O        3.56042        -7.01906        -1.76063
   N        4.72888        -5.37735        -0.63339
   C        3.58002        -8.12178         1.46276
   O        3.98506        -7.84446         2.74863
   C        4.62110        -6.60851         2.81208
   O        5.05817        -6.16724         3.84011
   C        3.03220        -9.35475         1.17406
   C        3.03054       -10.40465         2.09125
   C        2.62271       -11.73045         1.87978
   C        2.93484       -12.58036         2.91496
   C        3.58908       -11.94093         3.97517
   S        3.74905       -10.23240         3.66858
   C        4.20944       -12.50232         5.09754
   C        4.41616       -13.84575         5.42640
   C        5.26934       -14.02858         6.49045
   C        5.75438       -12.83704         7.05099
   S        5.04647       -11.46703         6.22206
   C        6.76966       -12.71942         7.99729
   C        7.27006       -11.54829         8.53819
   C        8.51400       -11.36053         9.18038
   C        8.67109        -9.99784         9.46736
   C        7.46420        -9.29026         9.06046
   O        7.13682        -8.13094         9.16071
   N        6.68575       -10.29494         8.48981
   C        9.98094        -9.80049         9.91268
   O       10.62027       -11.01466         9.93284
   C        9.76156       -12.02279         9.49202
   O       10.11324       -13.17014         9.42714
   C       10.63998        -8.62514        10.21866
   C       12.00417        -8.52637        10.44502
   C       12.72130        -7.33953        10.69901
   C       14.07226        -7.51756        10.78341
   C       14.47491        -8.85763        10.59901
   S       13.08161        -9.89109        10.34800
   C       15.76898        -9.34691        10.56993
   C       16.96962        -8.60394        10.72954
   C       18.09936        -9.34129        10.61839
   C       17.86948       -10.73249        10.36209
   S       16.12467       -11.02986        10.28172
   C       18.78378       -11.69983        10.19426
   H        9.87370         0.28640        -6.58432
   H        8.67103        -1.08122        -6.84031
   H       10.35816         1.04467        -4.07421
   H        9.65539         0.44154        -1.67138
   H        8.73951        -0.49708         0.26624
   H        7.50362        -1.95261         1.99442
   H        6.01527        -3.97148         2.17773
   H        4.94183        -4.81487        -1.44277
   H        2.66886        -9.52175         0.17211
   H        2.14021       -12.03616         0.96840
   H        2.72268       -13.63458         2.91444
   H        3.97451       -14.64856         4.86399
   H        5.57270       -14.99098         6.86246
   H        7.28693       -13.62672         8.27707
   H        5.76537       -10.10753         8.12341
   H       10.04169        -7.72630        10.22536
   H       12.22118        -6.39269        10.79903
   H       14.77474        -6.72349        10.96072
   H       16.95391        -7.54544        10.91834
   H       19.09897        -8.95447        10.70531
   H       19.83498       -11.47718        10.24603
   H       18.49955       -12.71785        10.00107
*
