# ORCA input file
# SCF done       -153.234116414590          0.000450824193
! CAM-B3LYP def2-SVP def2/J RIJCOSX Grid4 TightSCF
%maxcore 5000
%tddft
    Mode sTDDFT
    Ethresh 5.0
    maxcore 5000
end

%pal
  nprocs 6
  end
* xyz 0 1
   C       -4.06543        -7.38438         0.21040
   C       -2.81067        -6.91664         0.32120
   C       -2.38601        -5.56119         0.48377
   C       -1.03932        -5.40427         0.56099
   C       -0.30589        -6.60947         0.46621
   S       -1.38732        -7.96914         0.27951
   C        1.07511        -6.75996         0.49206
   C        2.05280        -5.76256         0.62058
   C        3.33994        -6.24343         0.57628
   C        3.42894        -7.62912         0.41391
   S        1.82975        -8.32965         0.32937
   C        4.59704        -8.38931         0.28396
   C        4.62067        -9.74463         0.10055
   C        5.77067       -10.51049        -0.13691
   C        5.81772       -11.87849        -0.39385
   C        7.08074       -12.35063        -0.69372
   C        8.06300       -11.36467        -0.67228
   S        7.37371        -9.82266        -0.23997
   C        9.41804       -11.50342        -1.02536
   C       10.02671       -12.60836        -1.61366
   C       11.34460       -12.39425        -1.96417
   C       11.82285       -11.12444        -1.64217
   S       10.55940       -10.19561        -0.86480
   C       13.08829       -10.62917        -1.97942
   C       13.67629        -9.44037        -1.62630
   C       14.88281        -8.91170        -2.14936
   C       15.15521        -7.68408        -1.54823
   C       14.08118        -7.39744        -0.60159
   O       13.87694        -6.44976         0.12813
   N       13.23882        -8.49584        -0.71196
   C       16.26304        -7.11932        -2.21976
   O       16.63960        -7.99571        -3.21935
   C       15.84629        -9.12530        -3.20810
   O       16.01178       -10.03796        -3.97556
   C       16.92666        -5.92479        -2.12525
   C       16.90954        -5.01807        -1.05420
   C       17.40975        -3.71454        -1.09764
   C       17.41666        -3.08038         0.12569
   C       16.96181        -3.89234         1.16550
   S       16.43800        -5.43623         0.56612
   C       16.99376        -3.58759         2.54156
   C       17.32151        -2.36961         3.13050
   C       17.38610        -2.42171         4.50960
   C       17.12033        -3.68242         5.03862
   S       16.73576        -4.80667         3.75644
   C       17.21588        -4.05520         6.38753
   C       17.00930        -5.31545         6.87646
   C       17.22131        -5.69055         8.20893
   C       17.04634        -6.96143         8.76433
   C       17.39002        -7.04849        10.09286
   C       17.85357        -5.84050        10.63369
   S       17.82499        -4.58287         9.41802
   C       18.30985        -5.59582        11.92336
   C       18.40981        -6.52058        12.98841
   C       18.91846        -6.00029        14.13519
   C       19.25678        -4.61375        14.05098
   S       18.88060        -4.02271        12.42474
   C       19.78083        -3.82876        15.00739
   H       -4.90496        -6.71285         0.24103
   H       -4.26966        -8.43245         0.09158
   H       -3.10228        -4.76074         0.53359
   H       -0.54803        -4.45500         0.68049
   H        1.80289        -4.72354         0.73615
   H        4.21720        -5.62521         0.65201
   H        5.53329        -7.84549         0.30665
   H        3.68150       -10.28437         0.09789
   H        4.93504       -12.49273        -0.37173
   H        7.29695       -13.37774        -0.92528
   H        9.49891       -13.52538        -1.80215
   H       11.96520       -13.12591        -2.44971
   H       13.67804       -11.25408        -2.63688
   H       12.39655        -8.58216        -0.16463
   H       17.57694        -5.67763        -2.95448
   H       17.74865        -3.26449        -2.01388
   H       17.77061        -2.07757         0.28094
   H       17.50586        -1.48019         2.55602
   H       17.63410        -1.58131         5.13354
   H       17.51493        -3.27458         7.07665
   H       16.68481        -6.09499         6.19888
   H       16.67875        -7.78762         8.18150
   H       17.32212        -7.95047        10.67362
   H       18.10481        -7.54551        12.87374
   H       19.07078        -6.55121        15.04596
   H       19.99883        -4.22521        15.98313
   H       19.99938        -2.79182        14.83045
*
