# ORCA input file
# SCF done       -150.328547637936          0.000611424626
! CAM-B3LYP def2-SVP def2/J RIJCOSX Grid4 TightSCF
%maxcore 5000
%tddft
    Mode sTDDFT
    Ethresh 5.0
    maxcore 5000
end

%pal
  nprocs 6
  end
* xyz 0 1
   C        0.99967         0.94919        -2.71705
   N        2.14560         1.66608        -2.71870
   C        3.46042         1.07688        -2.75289
   C        3.90049         0.59932        -1.37052
   C        1.82759         3.00017        -2.71832
   C        0.43939         3.10241        -2.69098
   C       -0.07501         1.80637        -2.68782
   C        2.76387         4.07660        -2.65882
   S        4.13666         4.05065        -1.60576
   C        4.55187         5.70640        -1.93942
   C        3.63969         6.26437        -2.84662
   C        2.64381         5.32631        -3.27730
   C        1.73675         5.69786        -4.30476
   C        0.89988         4.76894        -4.96356
   N        0.24741         4.08472        -5.61320
   C        1.73670         6.99687        -4.77862
   C        2.63874         7.93929        -4.28558
   C        3.60326         7.58841        -3.35645
   C        4.51616         8.59602        -2.97818
   N        5.21570         9.47390        -2.73598
   C        5.66648         6.30819        -1.33269
   C        6.44598         5.71627        -0.38532
   C        7.53447         6.37566         0.21778
   S        8.04593         7.94329        -0.34378
   C        9.26447         8.08915         0.90359
   C        9.28280         6.95022         1.70342
   C        8.31802         5.98441         1.30710
   N        8.17619         4.76621         2.00814
   O        7.39231         3.93114         1.58498
   O        8.85305         4.61477         3.00880
   C       10.17649         6.78600         2.77715
   N       10.94018         6.73440         3.63269
   C        9.93237         9.33223         0.97576
   C       10.73277         9.78935         1.97161
   C       11.23378        11.12347         2.08406
   C       10.68880        12.28322         1.57725
   O       11.37464        13.48240         1.60025
   C       12.57023        13.48372         2.25284
   C       13.07450        12.31176         2.88661
   C       14.25956        12.52006         3.51051
   S       14.77959        14.15589         3.33119
   C       13.38183        14.55889         2.40579
   O       12.41292        11.12682         2.82168
   C        9.39501        12.47555         0.98801
   C        8.28521        11.73845         1.23385
   C        7.03981        11.87458         0.58024
   O        6.78173        12.89846        -0.27624
   C        5.55497        12.69329        -0.79324
   C        4.99255        11.54845        -0.30224
   O        3.77347        11.00709        -0.55487
   C        3.01004        11.66909        -1.53596
   C        5.95172        10.99514         0.60080
   N        5.88468         9.83410         1.31219
   C        4.93546         8.84978         1.19055
   C        4.97671         7.71587         1.88382
   H        1.01997        -0.12258        -2.74645
   H        4.16954         1.81184        -3.14076
   H        3.43609         0.22846        -3.44370
   H        3.93290         1.42843        -0.66845
   H        4.89140         0.15885        -1.43023
   H        3.20787        -0.14765        -0.99076
   H       -0.12146         4.01425        -2.63819
   H       -1.10959         1.53041        -2.66811
   H        1.04177         7.27768        -5.55542
   H        2.61061         8.95128        -4.66132
   H        5.89354         7.32162        -1.63312
   H        6.22449         4.71655        -0.03984
   H        9.67943        10.00762         0.16946
   H       11.10924         9.11303         2.72630
   H       14.84976        11.81609         4.05821
   H       13.23997        15.55181         2.03402
   H        9.31902        13.34767         0.35419
   H        8.34048        10.93161         1.95006
   H        5.20240        13.42139        -1.49497
   H        2.08740        11.09969        -1.63351
   H        3.53896        11.68530        -2.49328
   H        2.77723        12.69395        -1.23082
   H        6.64184         9.65581         1.95782
   H        4.15527         9.06671         0.47897
   H        5.75657         7.51433         2.59921
   H        4.22234         6.96272         1.76628
*
