# ORCA input file
# SCF done       -140.978275457996          0.000726768062
! CAM-B3LYP def2-SVP def2/J RIJCOSX Grid4 TightSCF
%maxcore 5000
%tddft
    Mode sTDDFT
    Ethresh 5.0
    maxcore 5000
end

%pal
  nprocs 6
  end
* xyz 0 1
   C      -16.31410        18.35107        19.13591
   C      -15.03644        18.27274        18.64903
   C      -14.76760        18.25949        17.27352
   C      -15.75949        18.32355        16.31036
   C      -17.09727        18.40737        16.78739
   C      -17.36147        18.41972        18.20447
   N      -18.66636        18.50111        18.47032
   S      -19.47357        18.55616        17.08493
   N      -18.22106        18.48062        16.07659
   C      -15.46043        18.29993        14.90526
   S      -13.81275        18.18997        14.34577
   C      -14.33567        18.19964        12.68268
   C      -15.70920        18.28844        12.59752
   C      -16.33539        18.34495        13.84289
   C      -13.42529        18.10555        11.64434
   C      -12.61155        18.00088        10.74786
   C      -11.72608        17.85332         9.68881
   C      -10.38334        17.79025         9.85069
   C       -9.45188        17.58610         8.79653
   S       -7.74277        17.53427         9.15871
   C       -7.35282        17.23743         7.48091
   C       -8.49880        17.18882         6.71317
   C       -9.66680        17.38554         7.44732
   C       -6.04014        17.08319         7.07163
   C       -4.87926        16.93834         6.74208
   C       -3.54835        16.82066         6.36398
   C       -2.55260        17.28002         7.15736
   C       -1.16002        17.19003         6.85367
   C       -0.20770        17.94512         7.48041
   O        1.14818        17.70936         7.34014
   C        1.47378        16.72041         6.46058
   C        0.48230        15.99854         5.73017
   C        1.01732        15.07680         4.89244
   S        2.74151        15.07280         4.97994
   C        2.73673        16.32976         6.16098
   O       -0.84716        16.22754         5.89278
   C       -0.49108        19.05215         8.35069
   C       -1.57898        19.83716         8.19394
   N       -1.95211        20.87405         8.98038
   C       -1.46137        21.04021        10.35867
   N       -2.50408        21.70302        11.11783
   C       -3.71421        21.30406        10.42061
   N       -4.88043        22.11703        10.67114
   C       -5.76232        22.03631         9.51195
   C       -5.55168        20.73271         8.71207
   N       -4.23935        20.67358         8.09480
   C       -3.30738        21.40080         8.92967
   N       -6.67722        20.80302         7.81582
   C       -7.78176        21.18702         8.68996
   N       -7.17884        21.97996         9.75969
   C       -7.85052        23.09518        10.23213
   C       -7.29050        24.13971        10.82730
   H      -16.53408        18.36016        20.19058
   H      -14.20458        18.21828        19.33561
   H      -13.73852        18.19515        16.94974
   H      -16.22884        18.30795        11.65602
   H      -17.39829        18.41431        13.98359
   H      -12.17012        17.77084         8.70527
   H       -9.97143        17.88474        10.84703
   H       -8.47115        17.01389         5.65211
   H      -10.64662        17.37519         7.00467
   H       -3.33447        16.38425         5.39849
   H       -2.80522        17.73885         8.10179
   H        0.50513        14.40624         4.23492
   H        3.65531        16.70430         6.56114
   H        0.26436        19.27091         9.08905
   H       -2.23570        19.69236         7.34965
   H       -0.53169        21.61412        10.37315
   H       -1.27576        20.04925        10.79577
   H       -2.41547        22.71420        11.07002
   H       -3.85799        20.23458        10.65831
   H       -5.36143        21.82688        11.51512
   H       -5.52304        22.89907         8.85926
   H       -5.63601        19.87220         9.40502
   H       -4.28419        21.05929         7.15726
   H       -3.23781        22.47270         8.66123
   H       -6.85396        19.92416         7.34051
   H       -8.29263        20.31801         9.14061
   H       -8.51398        21.76480         8.11294
   H       -8.92401        23.01727        10.12375
   H       -6.22697        24.21913        10.95758
   H       -7.89803        24.93504        11.21671
*
