# ORCA input file
# SCF done       -253.462327560197          0.000827870974
! CAM-B3LYP def2-SVP def2/J RIJCOSX Grid4 TightSCF
%maxcore 5000
%tddft
    Mode sTDDFT
    Ethresh 5.0
    maxcore 5000
end

%pal
  nprocs 6
  end
* xyz 0 1
   C        3.41266        -3.83493        -0.27646
   C        2.96382        -3.38986         1.07895
   O        1.90600        -3.60873         1.61607
   C        4.05005        -2.51624         1.57224
   C        5.09993        -2.47786         0.63724
   C        4.76819        -3.34625        -0.48038
   C        5.62105        -3.77343        -1.46098
   C        6.97492        -3.38830        -1.55204
   N        8.08410        -3.11876        -1.67038
   C        5.27485        -4.71624        -2.45009
   N        5.05690        -5.49183        -3.26910
   C        6.22788        -1.71344         0.90127
   C        6.29290        -1.00955         2.09266
   C        5.24999        -1.06844         3.01192
   C        4.10877        -1.82183         2.76216
  Cl        5.37953        -0.18900         4.48598
   C        2.62817        -4.46751        -1.17234
   C        1.35324        -5.08230        -0.84215
   C        1.26681        -6.00750         0.20955
   C        2.49704        -6.50952         0.88381
   O        2.63552        -6.60240         2.07907
   C        3.50684        -7.02216        -0.07543
   C        3.15263        -7.73061        -1.18672
   S        4.50728        -8.36719        -2.01837
   C        5.57696        -7.69694        -0.86379
   C        4.92417        -7.01287         0.12330
   C        5.59760        -6.23002         1.17743
   O        5.16633        -5.14642         1.52766
   C        6.85153        -6.78721         1.72659
   C        7.08673        -8.15885         1.79800
   C        8.27128        -8.62752         2.33495
   C        9.22939        -7.73804         2.79552
   C        8.99650        -6.37276         2.73673
   C        7.80926        -5.89879         2.21457
   C        0.03657        -6.55777         0.53670
   C       -1.09082        -6.23623        -0.19234
   C       -1.00601        -5.36843        -1.28367
   C        0.21758        -4.78333        -1.58554
   C       -2.18771        -5.18679        -2.13668
   C       -2.10339        -5.16949        -3.53257
   C       -0.83857        -5.07465        -4.31879
   O       -0.67031        -4.11129        -5.04344
   C        0.16171        -6.15599        -4.28190
   C        1.36857        -5.95223        -4.90811
   S        2.41331        -7.28981        -4.82340
   C        1.24521        -8.16333        -3.91570
   C        0.09575        -7.46247        -3.70080
   C       -0.99147        -8.07504        -2.88670
   O       -0.72839        -8.53043        -1.79145
   C       -2.33386        -8.15160        -3.48924
   C       -2.51244        -8.11978        -4.87219
   C       -3.78085        -8.24222        -5.40593
   C       -4.87847        -8.37646        -4.56922
   C       -4.70640        -8.41131        -3.19479
   C       -3.43960        -8.31588        -2.65414
   C       -3.27663        -5.13271        -4.28150
   C       -4.51131        -5.19909        -3.67632
   C       -4.61955        -5.16975        -2.28366
   C       -3.44560        -5.10989        -1.54380
   C       -5.94633        -5.27890        -1.65783
   C       -6.14113        -5.87028        -0.40133
   C       -5.03751        -6.25662         0.53912
   O       -4.34159        -7.23733         0.42537
   C       -4.93761        -5.30049         1.66138
   C       -5.46355        -4.03353         1.63244
   S       -5.13893        -3.15100         3.05616
   C       -4.27393        -4.48372         3.72017
   C       -4.23594        -5.55177         2.88151
   C       -3.62892        -6.86459         3.26279
   O       -4.31893        -7.85388         3.36415
   C       -2.18767        -6.82697         3.57635
   C       -1.38226        -5.72560         3.28054
   C       -0.04391        -5.73080         3.62556
   C        0.50443        -6.83083         4.26765
   C       -0.28396        -7.93681         4.54940
   C       -1.62029        -7.93876         4.20243
   C       -7.43006        -6.06645         0.08752
   C       -8.53449        -5.69979        -0.64879
   C       -8.36229        -5.04440        -1.87074
   C       -7.07157        -4.81964        -2.33918
   C       -9.50095        -4.56261        -2.62578
   C      -10.69584        -5.16799        -2.78011
   C      -11.88391        -4.39185        -3.24567
   O      -11.87861        -3.30506        -3.76870
   C      -13.04880        -5.22082        -2.86551
   C      -12.60533        -6.45650        -2.35530
   C      -11.15120        -6.50925        -2.44063
   C      -10.38833        -7.64307        -2.44690
   C      -10.90203        -8.93269        -2.19086
   N      -11.27717        -9.99460        -1.97343
   C       -9.02688        -7.66658        -2.81768
   N       -7.94418        -7.75141        -3.18734
   C      -13.53268        -7.38767        -1.90863
   C      -14.88020        -7.07600        -1.98486
   C      -15.30372        -5.85568        -2.50464
   C      -14.39018        -4.90740        -2.95135
  Cl      -16.98867        -5.51667        -2.59232
   H        7.04598        -1.65514         0.20106
   H        7.16224        -0.41112         2.31682
   H        3.29927        -1.87612         3.47274
   H        2.92311        -4.51662        -2.21390
   H        2.15680        -7.93929        -1.52718
   H        6.63620        -7.80419        -0.99342
   H        6.33204        -8.85341         1.46071
   H        8.44838        -9.69095         2.39696
   H       10.15541        -8.11008         3.20799
   H        9.73980        -5.68025         3.10205
   H        7.60541        -4.83892         2.16416
   H       -0.02103        -7.28133         1.33379
   H       -2.02794        -6.71394         0.04885
   H        0.28767        -4.05685        -2.38239
   H        1.66627        -5.05502        -5.41531
   H        1.44775        -9.17152        -3.60990
   H       -1.65632        -8.01883        -5.52433
   H       -3.91483        -8.23036        -6.47780
   H       -5.87240        -8.45562        -4.98245
   H       -5.56536        -8.51295        -2.55011
   H       -3.29027        -8.35089        -1.58572
   H       -3.20359        -5.09911        -5.35820
   H       -5.39218        -5.28757        -4.29105
   H       -3.48523        -4.98982        -0.47326
   H       -6.00697        -3.56753         0.83378
   H       -3.85267        -4.40649         4.70285
   H       -1.79336        -4.87244         2.76151
   H        0.58233        -4.89104         3.36787
   H        1.55273        -6.83097         4.52102
   H        0.14688        -8.79909         5.03683
   H       -2.25315        -8.78871         4.41110
   H       -7.55701        -6.52941         1.05531
   H       -9.52753        -5.86296        -0.25662
   H       -6.95018        -4.29213        -3.27254
   H       -9.40829        -3.57579        -3.06824
   H      -13.22447        -8.33549        -1.49747
   H      -15.61504        -7.78591        -1.63913
   H      -14.70976        -3.95919        -3.35369
*
