# ORCA input file
# SCF done       -127.205297821112          0.000730423016
! CAM-B3LYP def2-SVP def2/J RIJCOSX Grid4 TightSCF
%maxcore 5000
%tddft
    Mode sTDDFT
    Ethresh 5.0
    maxcore 5000
end

%pal
  nprocs 6
  end
* xyz 0 1
   C       -0.22672        -1.02649         3.16912
   C       -0.69664        -0.86847         1.89357
   C       -0.74010         0.38338         1.25739
   C       -0.29960         1.54388         1.86512
   C        0.17076         1.40905         3.19926
   C        0.21096         0.12330         3.84447
   N        0.68802         0.20396         5.08805
   S        1.04823         1.73774         5.40346
   N        0.62378         2.37759         3.99120
   C       -0.31716         2.84508         1.24019
   C       -0.16592         3.20113        -0.08793
   C        0.11567         2.27472        -1.23174
   C       -1.13436         2.03630        -2.08139
   C       -0.24914         4.58834        -0.28175
   C       -0.46054         5.31140         0.87060
   S       -0.53046         4.24810         2.24325
   C       -0.59261         6.71664         1.07317
   C       -0.59595         7.63655         0.08660
   C       -0.71350         9.06374         0.22912
   C       -0.80519         9.83429        -0.92325
   C       -0.90995        11.21808        -0.89661
   C       -0.90869        11.92439         0.29264
   C       -0.85955        11.17874         1.50045
   C       -0.74786         9.76054         1.47495
   N       -0.67398         9.08975         2.64010
   C       -0.75396         9.73647         3.77336
   C       -0.94079        11.14592         3.79278
   N       -0.97493        11.82660         2.67713
   C       -1.09336        11.90577         5.06897
   C       -0.64900         8.93896         5.03127
   C       -1.00242        13.37134         0.27967
   C       -0.25890        14.32637         0.93751
   C        0.90290        14.04066         1.83787
   C        2.07315        13.43896         1.05944
   C       -0.64450        15.63141         0.58737
   C       -1.67381        15.70208        -0.32237
   S       -2.17325        14.09895        -0.78264
   C       -2.28006        16.87797        -0.84561
   C       -3.31066        16.88006        -1.71488
   C       -3.95239        18.04519        -2.25702
   C       -5.04179        17.91082        -3.10302
   C       -5.72038        19.00181        -3.66291
   C       -5.34268        20.29373        -3.41079
   C       -4.24218        20.49477        -2.56308
   C       -3.53982        19.37884        -1.97821
   N       -2.53111        19.78438        -1.20865
   S       -2.47461        21.39355        -1.22119
   N       -3.71932        21.66661        -2.19724
   H       -0.19338        -1.98491         3.66030
   H       -1.05679        -1.72889         1.34887
   H       -1.16345         0.43155         0.26810
   H        0.50779         1.32655        -0.86195
   H        0.88358         2.73092        -1.86208
   H       -1.93828         1.61303        -1.48244
   H       -0.91181         1.35302        -2.89770
   H       -1.48916         2.97458        -2.50136
   H       -0.14181         5.04249        -1.25073
   H       -0.69432         7.04523         2.09563
   H       -0.51253         7.30004        -0.93995
   H       -0.79325         9.33660        -1.88279
   H       -0.97521        11.76254        -1.82789
   H       -1.93895        11.52411         5.63890
   H       -1.25475        12.95664         4.84515
   H       -0.19927        11.80057         5.68244
   H       -0.47810         7.89432         4.78729
   H       -1.56659         9.02611         5.61169
   H        0.17284         9.30475         5.64498
   H        0.59190        13.34682         2.61930
   H        1.21980        14.97295         2.30880
   H        1.78485        12.48903         0.61423
   H        2.91889        13.26769         1.72162
   H        2.38748        14.11050         0.26285
   H       -0.17565        16.51155         0.99243
   H       -1.86967        17.81701        -0.50181
   H       -3.71627        15.93022        -2.04400
   H       -5.38716        16.91463        -3.33829
   H       -6.56442        18.80918        -4.30817
   H       -5.85481        21.14209        -3.83395
*
