# ORCA input file
# SCF done       -192.011693754941          0.000790107772
! CAM-B3LYP def2-SVP def2/J RIJCOSX Grid4 TightSCF
%maxcore 5000
%tddft
    Mode sTDDFT
    Ethresh 5.0
    maxcore 5000
end

%pal
  nprocs 6
  end
* xyz 0 1
   C       -2.79358         1.13047         3.09522
   N       -3.86209         0.48233         3.43879
   N       -4.05401        -0.79756         3.15051
   C       -3.18015        -1.51160         2.50687
   C       -1.96278        -0.91673         2.07434
   C       -1.75931         0.47298         2.38149
   N       -0.58036         0.80797         1.89015
   O       -0.09466        -0.28473         1.32519
   N       -0.89900        -1.33943         1.41827
   C       -3.44541        -2.95641         2.19822
   C       -4.72389        -3.45949         2.87298
   N       -3.68837        -3.02876         0.73552
   N       -3.20242        -3.80799        -0.02870
   C       -2.24538        -4.89101         0.29356
   C       -1.66910        -4.67934         1.64542
   C       -2.24966        -3.75459         2.55951
   N       -1.50636        -3.72995         3.62903
   O       -0.51169        -4.60010         3.41136
   N       -0.60219        -5.17262         2.20729
   C       -1.14034        -4.88144        -0.76669
   C       -3.09151        -6.13392         0.27552
   C       -3.90138        -6.66264        -0.70824
   C       -4.04065        -6.15841        -2.08236
   O       -3.52645        -5.15357        -2.51605
   C       -4.87581        -7.03465        -2.94126
   C       -5.67089        -8.09659        -2.43766
   C       -6.37292        -8.73233        -3.43101
   S       -6.07106        -8.06949        -4.98778
   C       -5.00467        -6.90822        -4.30455
   C       -4.31984        -5.92503        -5.20450
   F       -4.71534        -4.66745        -5.00027
   F       -2.98911        -5.96075        -5.08291
   F       -4.58719        -6.19982        -6.49431
   C       -7.31210        -9.88986        -3.28450
   F       -6.77534       -10.91407        -2.62001
   F       -8.44696        -9.55264        -2.66333
   F       -7.67120       -10.36446        -4.49158
   C       -5.70676        -8.44070        -1.00126
   O       -6.58116        -9.11683        -0.50606
   C       -4.61487        -7.81762        -0.25101
   C       -4.30539        -8.17313         1.04531
   S       -3.18292        -7.05347         1.74048
   C       -4.74024        -9.33409         1.77263
   C       -5.01015        -9.33168         3.12646
   C       -5.48478       -10.45822         3.80773
   C       -5.71014       -11.67924         3.19533
   C       -5.37244       -11.74335         1.81303
   C       -4.88796       -10.58195         1.11374
   N       -4.59502       -10.95751        -0.11590
   O       -4.88497       -12.25062        -0.18530
   N       -5.35373       -12.74312         0.95391
   C       -6.23772       -12.81408         3.88502
   C       -6.56685       -14.03242         3.35841
   C       -7.08723       -14.94024         4.30743
   C       -7.13041       -14.37973         5.60949
   S       -6.55214       -12.74124         5.60949
   C       -7.59385       -15.08936         6.70050
   S       -7.65156       -14.39779         8.33575
   C       -5.87369       -14.15679         8.65123
   C       -8.07988       -16.38076         6.46966
   C       -8.06128       -16.94320         5.16640
   C       -7.55217       -16.25119         4.07554
   S       -7.49270       -16.79658         2.40392
   C       -7.34556       -18.60540         2.48167
   S       -8.78287       -18.53650         5.19319
   C       -9.06984       -18.42586         6.89094
   C       -8.65510       -17.26187         7.42825
   H       -2.73027         2.17065         3.37316
   H       -5.56387        -2.86905         2.52047
   H       -4.63105        -3.33749         3.94819
   H       -4.88819        -4.50876         2.63448
   H       -0.54402        -3.98023        -0.64710
   H       -1.58065        -4.88203        -1.75821
   H       -0.50306        -5.75073        -0.63060
   H       -4.88529        -8.41177         3.67957
   H       -5.70387       -10.36198         4.86112
   H       -6.44434       -14.26377         2.31599
   H       -5.79954       -13.81245         9.67738
   H       -5.46834       -13.40966         7.97622
   H       -5.36028       -15.10689         8.53519
   H       -6.93910       -18.89521         1.51707
   H       -8.31656       -19.06749         2.62695
   H       -6.65765       -18.88204         3.27286
   H       -9.53945       -19.25475         7.38326
   H       -8.75080       -17.00184         8.46634
*
