# ORCA input file
# SCF done       -196.008595730674          0.000325503293
! CAM-B3LYP def2-SVP def2/J RIJCOSX Grid4 TightSCF
%maxcore 5000
%tddft
    Mode sTDDFT
    Ethresh 5.0
    maxcore 5000
end

%pal
  nprocs 6
  end
* xyz 0 1
   C        2.54890         0.04876         1.03038
   C        1.43435         0.13850         1.79902
   C        0.62147        -1.01690         1.74085
   C       -0.61979        -1.15772         2.50803
   C       -1.60145        -0.19024         2.39395
   C       -2.81543        -0.34315         3.06907
   C       -3.01264        -1.45389         3.87352
   C       -2.00164        -2.40782         4.02053
   C       -0.80758        -2.26954         3.32889
   O       -2.30216        -3.44046         4.84821
   C       -1.31203        -4.40924         5.11042
   O       -3.73039         0.63433         2.86061
   C       -4.99558         0.51659         3.46872
   C        1.14226        -1.98574         0.90407
   S        2.64841        -1.44659         0.19870
   C        0.53296        -3.22108         0.47791
   C       -0.94094        -3.25378         0.48323
   C       -1.62883        -4.29375         1.11245
   C       -3.01016        -4.29732         1.23223
   C       -3.74932        -3.23822         0.71144
   C       -3.09335        -2.19974         0.05977
   C       -1.70755        -2.21579        -0.04708
   F       -1.10566        -1.21508        -0.69506
   F       -3.79442        -1.18909        -0.45371
   F       -5.07583        -3.21781         0.84096
   F       -3.62815        -5.30056         1.85725
   F       -0.93988        -5.30683         1.65336
   C        1.24868        -4.31287         0.06026
   C        2.68621        -4.42674         0.37394
   C        3.14435        -4.28952         1.68683
   C        4.48842        -4.41320         2.01185
   C        5.41853        -4.69038         1.01285
   C        4.98769        -4.84521        -0.30155
   C        3.63717        -4.71705        -0.60602
   F        3.25117        -4.85529        -1.87757
   F        5.86967        -5.11385        -1.26396
   F        6.70971        -4.80996         1.31442
   F        4.88906        -4.27370         3.27612
   F        2.26985        -4.04327         2.66737
   C        0.67329        -5.37708        -0.71566
   N        1.22049        -6.62324        -0.78205
   C        0.51704        -7.39626        -1.65669
   C       -0.51788        -6.61630        -2.17069
   C       -0.42046        -5.36224        -1.58397
   C        0.88042        -8.69963        -1.96279
   C        1.22468        -9.82206        -2.26965
   C        1.65827       -11.09399        -2.64197
   C        1.01039       -11.84579        -3.61170
   C        1.47679       -13.09871        -3.99917
   C        2.58857       -13.69549        -3.42057
   C        3.30560       -12.94648        -2.44562
   C        2.83589       -11.64039        -2.05405
   N        3.59807       -11.02254        -1.16234
  Se        4.97051       -12.04238        -0.78457
   N        4.44572       -13.30417        -1.87167
   C        3.01944       -14.99010        -3.87197
   N        2.86862       -15.32049        -5.14482
   C        3.46547       -16.52040        -5.29037
   C        4.01747       -16.99118        -4.00425
   C        4.65848       -18.30860        -4.16559
   O        5.20511       -18.99123        -3.32940
   C        4.46187       -18.58095        -5.60360
   C        3.73108       -17.46525        -6.24606
   N        3.52602       -17.72458        -7.56249
   C        4.06406       -18.90070        -7.76676
   C        4.65840       -19.49601        -6.58627
   C        3.69858       -16.04165        -3.07900
   C        3.86514       -16.12472        -1.64957
   C        3.00672       -15.63420        -0.76118
   H        3.32945         0.77181         0.90044
   H        1.19115         0.99159         2.40571
   H       -1.46443         0.67079         1.76024
   H       -3.92769        -1.61678         4.41757
   H       -0.01276        -2.99090         3.42190
   H       -1.75648        -5.09093         5.83329
   H       -0.41434        -3.95575         5.54066
   H       -1.04038        -4.96681         4.21004
   H       -4.91738         0.51883         4.56017
   H       -5.51377        -0.38994         3.14144
   H       -5.55835         1.39014         3.14460
   H        2.01049        -6.95064        -0.25016
   H       -1.23891        -6.93563        -2.89586
   H       -1.04237        -4.51634        -1.79746
   H        0.12634       -11.43887        -4.07895
   H        0.95467       -13.65132        -4.76480
   H        4.04123       -19.34494        -8.74702
   H        5.14032       -20.45279        -6.54613
   H        4.71318       -16.71363        -1.32634
   H        2.12085       -15.09509        -1.05671
   H        3.15140       -15.77643         0.29579
*
