# ORCA input file
# SCF done       -188.033655400776          0.000940604739
! CAM-B3LYP def2-SVP def2/J RIJCOSX Grid4 TightSCF
%maxcore 5000
%tddft
    Mode sTDDFT
    Ethresh 5.0
    maxcore 5000
end

%pal
  nprocs 6
  end
* xyz 0 1
   C        1.52679         0.08913         1.74751
   C        0.29552         0.29566         1.21456
   C       -0.44589        -0.89704         1.04238
   C       -1.83106        -0.93280         0.57561
   C       -2.19097        -0.19171        -0.54859
   C       -3.49015        -0.26212        -1.02550
   C       -4.44155        -1.03553        -0.35884
   C       -4.08717        -1.75020         0.77405
   C       -2.77455        -1.69770         1.24050
   O       -4.93582        -2.53377         1.49282
   C       -6.26497        -2.66393         1.05373
   O       -3.94498         0.38499        -2.13329
   C       -3.00450         1.04258        -2.94902
   C        0.26526        -2.01263         1.44722
   S        1.83311        -1.56689         2.06613
   C       -0.14386        -3.37304         1.29552
   C       -0.89281        -3.91443         0.25925
   C       -1.13307        -5.28554         0.56083
   C       -0.45133        -5.60752         1.79516
   O       -0.31573        -6.62945         2.42593
   N        0.13598        -4.37774         2.18246
   C        0.85787        -4.25822         3.41835
   C       -1.85896        -5.84129        -0.47589
   N       -2.05993        -4.86064        -1.41897
   C       -1.47756        -3.63311        -1.02676
   O       -1.50898        -2.64459        -1.73195
   C       -2.94374        -4.91291        -2.55257
   C       -2.31684        -7.19574        -0.49689
   C       -2.76736        -7.88020         0.61888
   C       -3.02038        -9.22778         0.24224
   C       -2.74765        -9.36233        -1.16971
   O       -2.84254       -10.28279        -1.94955
   N       -2.32403        -8.06690        -1.55936
   C       -1.72722        -7.86389        -2.85237
   C       -3.48267        -9.91118         1.35382
   N       -3.56397        -9.02027         2.39482
   C       -3.12232        -7.72679         2.01145
   O       -3.11845        -6.78629         2.77117
   C       -3.77951        -9.32658         3.78357
   C       -3.73922       -11.31771         1.36821
   C       -2.96709       -12.24923         0.69919
   C       -3.54551       -13.53546         0.88603
   C       -4.73635       -13.37061         1.67789
   O       -5.58959       -14.14870         2.06372
   N       -4.77984       -11.99067         1.96622
   C       -5.93598       -11.41298         2.59789
   C       -2.73551       -14.47256         0.24736
   N       -1.67655       -13.79884        -0.30263
   C       -1.74023       -12.40636        -0.04863
   O       -0.88201       -11.63305        -0.40370
   C       -0.59439       -14.34304        -1.07258
   C       -2.96319       -15.87361         0.19422
   C       -4.07089       -16.50980         0.70942
   C       -4.05482       -17.91041         0.54257
   C       -5.11464       -18.80741         1.00464
   C       -5.92716       -18.43370         2.06229
   C       -6.93622       -19.28797         2.51089
   C       -7.12332       -20.51425         1.89465
   C       -6.30627       -20.89076         0.82679
   C       -5.30633       -20.04348         0.38094
   O       -6.58244       -22.11694         0.29758
   C       -5.79715       -22.57951        -0.77307
   O       -7.67410       -18.82918         3.55530
   C       -8.72204       -19.63148         4.04209
   C       -2.91395       -18.32198        -0.10279
   S       -1.86793       -17.03703        -0.51251
   H        2.28087         0.81458         1.98127
   H       -0.09156         1.26782         0.96811
   H       -1.43374         0.37680        -1.06095
   H       -5.43830        -1.05672        -0.76747
   H       -2.52096        -2.26487         2.12141
   H       -6.74107        -3.34447         1.75789
   H       -6.31604        -3.09103         0.04680
   H       -6.78958        -1.70288         1.06619
   H       -3.55884         1.38564        -3.82153
   H       -2.21014         0.35962        -3.26378
   H       -2.56486         1.90686        -2.44000
   H        0.48297        -3.42112         4.00876
   H        1.92734        -4.12382         3.24110
   H        0.70184        -5.19018         3.96242
   H       -3.73191        -5.64441        -2.38141
   H       -2.40343        -5.15571        -3.47029
   H       -3.38056        -3.91983        -2.67324
   H       -1.31973        -8.82300        -3.17587
   H       -0.92706        -7.12839        -2.78819
   H       -2.46936        -7.54580        -3.58824
   H       -3.45804       -10.34405         4.00075
   H       -4.82815        -9.19855         4.06196
   H       -3.18588        -8.62105         4.36689
   H       -5.80346       -11.33903         3.67944
   H       -6.77896       -12.07915         2.40667
   H       -6.14178       -10.42822         2.18102
   H       -0.96157       -14.85627        -1.96290
   H        0.00820       -15.03428        -0.47962
   H        0.02313       -13.49555        -1.37363
   H       -4.87254       -15.96818         1.17827
   H       -5.79864       -17.49010         2.56519
   H       -7.88693       -21.20868         2.20226
   H       -4.68482       -20.31224        -0.45674
   H       -6.18716       -23.56574        -1.02009
   H       -4.74326       -22.66917        -0.48940
   H       -5.88414       -21.92753        -1.64833
   H       -9.17162       -19.06606         4.85672
   H       -8.35179       -20.58752         4.42603
   H       -9.47646       -19.81794         3.27116
   H       -2.61136       -19.32233        -0.34191
*
