# ORCA input file
# SCF done       -176.001883631491          0.000721328867
! CAM-B3LYP def2-SVP def2/J RIJCOSX Grid4 TightSCF
%maxcore 5000
%tddft
    Mode sTDDFT
    Ethresh 5.0
    maxcore 5000
end

%pal
  nprocs 6
  end
* xyz 0 1
   C       -1.16284        -1.55975        -1.18124
   O       -1.09457        -2.65836        -1.68605
   C       -0.16897        -0.47366        -1.33587
   C       -0.61022         0.67956        -0.66535
   C        0.17008         1.82751        -0.69314
   C        1.37174         1.80134        -1.38371
   C        1.78849         0.64853        -2.03742
   C        1.02382        -0.50977        -2.02812
  Br        3.44620         0.66025        -2.96583
   C       -1.89505         0.39232        -0.03660
   C       -2.57961         1.23531         0.79720
   C       -2.15952         2.54450         1.11484
   N       -1.87009         3.61564         1.40823
   C       -3.77511         0.91465         1.47627
   N       -4.73318         0.72647         2.08050
   C       -2.26704        -0.97019        -0.38523
   C       -3.50195        -1.51733        -0.20870
   C       -3.91132        -2.87436        -0.42911
   C       -3.06056        -3.96765        -0.18991
   C       -3.52776        -5.24289        -0.39217
   C       -4.85437        -5.45461        -0.81636
   C       -5.70945        -4.38177        -1.04075
   C       -5.23875        -3.10588        -0.83003
   C       -5.10333        -6.87592        -0.87668
   C       -3.93583        -7.54826        -0.47485
   C       -2.82355        -6.56473        -0.18150
   C       -1.71401        -6.81003        -1.23119
   C       -0.50639        -5.88593        -1.15837
   C       -2.29240        -6.70899         1.25316
   C       -3.40058        -6.62632         2.29717
   C       -3.90427        -8.92054        -0.42193
   C       -5.05722        -9.63732        -0.77311
   C       -6.21759        -8.96139        -1.17433
   C       -6.24649        -7.58382        -1.22713
   C       -5.04551       -11.04093        -0.72866
   C       -5.05191       -12.25238        -0.70685
   C       -5.03470       -13.64029        -0.68110
   S       -3.60774       -14.50857        -0.18558
   C       -4.41718       -16.02887        -0.44645
   C       -5.70837       -15.84475        -0.88981
   C       -6.05649       -14.49980        -1.02139
   C       -3.76225       -17.23043        -0.22026
   C       -3.16859       -18.26653        -0.01589
   C       -2.47336       -19.46854         0.15770
   C       -3.00762       -20.66511        -0.11220
   C       -2.27949       -21.98506        -0.00065
   C       -0.80001       -21.81943         0.12389
   N       -0.18353       -21.56381         1.25756
   S        1.41138       -21.43467         0.98593
   N        1.35037       -21.70640        -0.60999
   C        0.10156       -21.90527        -0.96900
   C       -0.30915       -22.19441        -2.38182
   C       -1.65529       -22.85375        -2.34387
   C       -2.54990       -22.77314        -1.24633
   N       -3.66519       -23.43523        -1.46157
   S       -3.60817       -24.11618        -2.93403
   N       -2.13645       -23.57094        -3.33484
   C       -0.38952       -20.92258        -3.16497
   C        0.27323       -20.55775        -4.29844
   C       -0.15481       -19.22389        -4.66345
   C       -1.13578       -18.78962        -3.67032
   O       -1.77000       -17.77531        -3.53607
   N       -1.21519       -19.89010        -2.79983
   C        0.52135       -18.89683        -5.78626
   O        1.34141       -19.89089        -6.17658
   C        1.24096       -20.97842        -5.28564
   O        1.88079       -21.97860        -5.43362
   H       -0.13737         2.73442        -0.19914
   H        1.99013         2.68518        -1.41624
   H        1.34012        -1.40768        -2.53606
   H       -4.29943        -0.85160         0.10193
   H       -2.07287        -3.79325         0.20251
   H       -6.72910        -4.54647        -1.35462
   H       -5.88893        -2.25818        -0.99189
   H       -2.16669        -6.71844        -2.22197
   H       -1.37805        -7.84383        -1.11724
   H       -0.78644        -4.85667        -1.35816
   H        0.21558        -6.18815        -1.91422
   H       -0.01837        -5.94457        -0.18879
   H       -1.56627        -5.91829         1.44419
   H       -1.77873        -7.66842         1.34287
   H       -3.92184        -5.67354         2.22996
   H       -2.98062        -6.71780         3.29624
   H       -4.12643        -7.42423         2.15629
   H       -3.01985        -9.45836        -0.11341
   H       -7.09053        -9.53843        -1.44168
   H       -7.14232        -7.06673        -1.53668
   H       -6.36770       -16.66571        -1.10872
   H       -7.01828       -14.15225        -1.35434
   H       -1.45830       -19.37527         0.52626
   H       -4.03233       -20.74669        -0.44785
   H       -2.67609       -22.52112         0.87007
   H        0.42488       -22.83907        -2.87452
   H       -1.81966       -19.88913        -1.98416
   H        0.51682       -18.01163        -6.39574
*
