# ORCA input file
# SCF done       -214.057161306472          0.000855461690
! CAM-B3LYP def2-SVP def2/J RIJCOSX Grid4 TightSCF
%maxcore 5000
%tddft
    Mode sTDDFT
    Ethresh 5.0
    maxcore 5000
end

%pal
  nprocs 6
  end
* xyz 0 1
   C       -1.93582        -4.32920        -6.27018
   C       -1.35960        -5.33967        -5.29217
   C       -0.70312        -6.47327        -5.75423
   C       -0.13924        -7.36288        -4.85748
   C       -0.22669        -7.13008        -3.49561
   C       -0.87990        -6.00137        -3.03257
   C       -1.43908        -5.10572        -3.92640
   C       -2.43951        -4.99384        -7.54307
   C       -3.36282        -6.02477        -7.40941
   C       -3.89657        -6.63003        -8.53122
   C       -3.51557        -6.20935        -9.79508
   C       -2.60867        -5.17378        -9.93046
   C       -2.07549        -4.55979        -8.80892
   C       -0.92387        -3.21618        -6.49869
   C       -1.56526        -2.02104        -6.15777
   C       -2.86279        -2.35111        -5.65157
   C       -3.82833        -1.50715        -5.14858
   C       -3.65919        -0.11955        -5.02377
   N       -3.57634         1.01553        -4.87152
   C       -5.05007        -2.02722        -4.68383
   N       -6.04585        -2.44985        -4.30000
   O       -3.07100        -3.67516        -5.68343
   C       -1.16784        -0.70773        -6.41249
   N       -0.87598         0.36850        -6.69240
   C        0.34977        -3.52837        -6.94524
   C        1.50837        -2.75694        -6.99957
   C        2.72247        -3.20095        -7.55432
   C        3.75249        -2.29796        -7.44906
   C        3.38698        -1.11812        -6.79428
   S        1.71472        -1.16985        -6.31215
   C        4.16933         0.01954        -6.54283
   C        5.50897         0.24022        -6.86287
   C        5.96071         1.49191        -6.49449
   C        4.99163         2.28209        -5.87826
   S        3.48416         1.41458        -5.75913
   C        5.14147         3.60032        -5.41232
   C        4.14350         4.32194        -4.82683
   C        4.25936         5.64625        -4.37023
   C        3.26123         6.40374        -3.76569
   C        3.65849         7.68379        -3.42579
   C        4.98032         7.96060        -3.75955
   S        5.72775         6.57844        -4.50851
   C        5.68119         9.16701        -3.55857
   C        5.20826        10.33093        -2.96114
   C        6.14307        11.34883        -2.92239
   C        7.36809        11.01032        -3.48860
   S        7.33142         9.36748        -4.07498
   C        8.49378        11.84398        -3.60212
   C        9.67878        11.49806        -4.18168
   C       10.77953        12.36546        -4.29630
   C       12.00596        12.09688        -4.90226
   C       12.88633        13.16025        -4.87700
   C       12.36907        14.29153        -4.24562
   S       10.75091        13.99455        -3.67655
   C       12.97424        15.54354        -4.05952
   C       14.23027        15.97788        -4.49492
   C       14.49879        17.28369        -4.16390
   C       13.45634        17.92735        -3.47219
   S       12.13449        16.81827        -3.22269
   C       13.52690        19.22378        -2.97041
   C       12.55210        19.99311        -2.35121
   C       11.15868        19.91741        -2.31136
   C       10.68306        21.01317        -1.52090
   C        9.38692        21.31991        -1.17235
   C        8.28428        20.52058        -1.51259
   N        7.34644        19.89717        -1.73735
   C        9.11146        22.46859        -0.40813
   N        8.88285        23.40990         0.20774
   O       11.69834        21.78828        -1.11382
   C       12.94249        21.23715        -1.56958
   C       13.63547        22.21928        -2.50173
   C       12.88059        23.05525        -3.31284
   C       13.50522        23.92203        -4.19162
   C       14.88625        23.95086        -4.27651
   C       15.64185        23.11261        -3.47458
   C       15.02154        22.24943        -2.58908
   C       13.77235        20.97224        -0.32245
   C       14.16776        19.70374         0.07267
   C       14.89315        19.53802         1.24132
   C       15.21420        20.63103         2.02571
   C       14.80433        21.89759         1.64186
   C       14.08635        22.06849         0.47376
   C       10.30693        19.10029        -3.05747
   N        9.61259        18.47314        -3.72525
   H       -0.64612        -6.67063        -6.81518
   H        0.36564        -8.24352        -5.22593
   H        0.21017        -7.82838        -2.79761
   H       -0.95559        -5.81397        -1.97204
   H       -1.95222        -4.23021        -3.55704
   H       -3.66179        -6.34087        -6.42132
   H       -4.61354        -7.42914        -8.41841
   H       -3.93122        -6.68257       -10.67204
   H       -2.31657        -4.83234       -10.91240
   H       -1.37869        -3.74292        -8.93011
   H        0.48652        -4.55522        -7.26366
   H        2.80838        -4.16314        -8.02740
   H        4.74291        -2.46604        -7.83145
   H        6.11707        -0.49927        -7.35137
   H        6.96295         1.84398        -6.66361
   H        6.11653         4.05300        -5.54305
   H        3.17235         3.86055        -4.69681
   H        2.27530         6.01244        -3.58911
   H        3.01575         8.40404        -2.95388
   H        4.21100        10.41937        -2.57100
   H        5.95790        12.32079        -2.50127
   H        8.38354        12.84239        -3.19700
   H        9.79813        10.50405        -4.59432
   H       12.22619        11.14368        -5.34941
   H       13.87428        13.13382        -5.29956
   H       14.90578        15.34260        -5.03852
   H       15.41001        17.79715        -4.41492
   H       14.50683        19.68252        -3.03581
   H       11.80250        23.04197        -3.25054
   H       12.90870        24.57401        -4.81166
   H       15.37293        24.62645        -4.96372
   H       16.71998        23.13226        -3.53332
   H       15.61716        21.60935        -1.95377
   H       13.91667        18.83899        -0.52410
   H       15.20076        18.54659         1.53915
   H       15.77675        20.49629         2.93739
   H       15.04257        22.75414         2.25411
   H       13.75690        23.05104         0.17118
*
