# ORCA input file
# SCF done       -184.566149881462          0.000219247346
! CAM-B3LYP def2-SVP def2/J RIJCOSX Grid4 TightSCF
%maxcore 5000
%tddft
    Mode sTDDFT
    Ethresh 5.0
    maxcore 5000
end

%pal
  nprocs 6
  end
* xyz 0 1
   C        5.23625         0.71327        -2.18935
   C        5.55904        -0.58858        -2.43237
   C        4.43055        -1.39915        -2.06050
   C        3.38793        -0.52297        -1.57401
   O        2.27005        -0.73005        -1.15524
   N        3.96717         0.75354        -1.68797
   C        4.77200        -2.70680        -2.30389
   O        6.03955        -2.77139        -2.80606
   C        6.58876        -1.48792        -2.91297
   O        7.69564        -1.31274        -3.33281
   C        4.03597        -3.89231        -2.10734
   C        2.74024        -3.99534        -1.63274
   C        2.28428        -5.31354        -1.55617
   C        0.91505        -5.68196        -1.17704
   C        0.34600        -5.16133        -0.03049
   C       -0.95340        -5.52775         0.33305
   C       -1.66640        -6.40612        -0.46559
   C       -1.09635        -6.91387        -1.63592
   C        0.19041        -6.55034        -1.99582
   O       -1.89008        -7.76030        -2.34508
   C       -1.37182        -8.34961        -3.51262
   O       -1.41904        -4.97844         1.48366
   C       -2.72439        -5.29987         1.90149
   C        3.25642        -6.23152        -1.95324
   S        4.71783        -5.44992        -2.46062
   C        3.17188        -7.65426        -1.91169
   C        2.40293        -8.43125        -1.07601
   C        2.55619        -9.81300        -1.26842
   C        1.80044       -10.76768        -0.44700
   C        0.42365       -10.63993        -0.38691
   C       -0.32166       -11.49251         0.42909
   C        0.32894       -12.43902         1.20136
   C        1.72071       -12.55296         1.15866
   C        2.45866       -11.72242         0.32558
   O        2.24633       -13.47368         1.99786
   C        3.61246       -13.78953         1.87576
   O       -1.66781       -11.30390         0.40261
   C       -2.47724       -12.15008         1.18372
   C        3.44967       -10.10981        -2.28819
   S        4.12032        -8.64811        -2.97394
   C        3.79825       -11.35199        -2.88492
   C        4.58056       -11.49394        -4.01892
   C        4.74425       -12.81242        -4.44255
   C        5.55929       -13.15522        -5.61395
   C        6.57242       -14.11330        -5.51772
   C        7.34248       -14.40806        -6.63404
   C        7.10456       -13.74872        -7.84312
   C        6.10857       -12.79015        -7.93271
   C        5.33592       -12.49190        -6.80686
   O        5.80272       -12.09383        -9.05479
   C        6.54510       -12.34107       -10.22604
   O        8.34587       -15.32082        -6.66449
   C        8.60432       -16.08345        -5.50881
   C        4.06114       -13.70991        -3.62005
   S        3.24291       -12.88821        -2.30845
   C        3.89403       -15.10738        -3.72219
   C        3.26949       -15.95084        -2.82008
   C        3.33390       -17.29713        -3.31997
   C        4.03409       -17.25347        -4.60385
   O        4.34488       -18.11249        -5.39077
   N        4.32655       -15.89650        -4.76868
   C        2.72569       -18.08005        -2.39813
   O        2.28141       -17.34593        -1.35464
   C        2.59435       -15.99304        -1.55995
   O        2.30625       -15.13749        -0.75892
   H        5.81128         1.60787        -2.33478
   H        3.47911         1.59445        -1.42098
   H        2.14947        -3.13388        -1.37479
   H        0.89276        -4.48515         0.60564
   H       -2.66636        -6.72573        -0.22601
   H        0.64707        -6.91843        -2.89965
   H       -2.15627        -9.00775        -3.88241
   H       -0.47437        -8.94138        -3.30283
   H       -1.14054        -7.59779        -4.27416
   H       -2.88046        -4.74961         2.82793
   H       -2.83104        -6.37208         2.09364
   H       -3.46958        -4.98655         1.16377
   H        1.76427        -8.01947        -0.31655
   H       -0.09630        -9.89613        -0.96846
   H       -0.19808       -13.11306         1.85509
   H        3.53437       -11.77571         0.29141
   H        3.78762       -14.61027         2.56935
   H        4.24934       -12.94171         2.15135
   H        3.84265       -14.11560         0.85842
   H       -3.50254       -11.83988         0.98751
   H       -2.26243       -12.03803         2.25121
   H       -2.35343       -13.19876         0.89698
   H        5.03270       -10.65702        -4.52157
   H        6.76072       -14.58303        -4.56545
   H        7.72690       -14.01587        -8.68020
   H        4.55680       -11.75276        -6.89377
   H        6.13042       -11.67638       -10.98194
   H        6.43742       -13.37852       -10.55689
   H        7.60549       -12.11187       -10.08367
   H        9.42219       -16.75029        -5.77562
   H        7.73337       -16.67988        -5.21887
   H        8.91310       -15.45150        -4.67020
   H        4.80773       -15.53153        -5.57912
   H        2.54385       -19.13725        -2.35419
*
