# ORCA input file
# SCF done       -127.282610793126          0.000916608992
! CAM-B3LYP def2-SVP def2/J RIJCOSX Grid4 TightSCF
%maxcore 5000
%tddft
    Mode sTDDFT
    Ethresh 5.0
    maxcore 5000
end

%pal
  nprocs 6
  end
* xyz 0 1
   C       -1.76142         0.92563        -0.14627
   N       -0.71292         1.78108        -0.08271
   C        0.45360         1.06639        -0.02633
   C        0.12186        -0.27801        -0.05625
   C       -1.27525        -0.35791        -0.13118
   C        1.70754         1.66864         0.04624
   C        2.80594         2.17817         0.10708
   C        4.08469         2.72424         0.17638
   N        4.32426         4.06643         0.18301
   C        5.67236         4.28977         0.25373
   C        6.30356         3.04876         0.29429
   C        5.31341         2.07287         0.24564
   C        6.23343         5.55718         0.27263
   C        6.72024         6.67067         0.28710
   C        7.32559         7.91290         0.29673
   C        6.71337         9.15260         0.27802
   C        7.64594        10.19112         0.28903
   C        8.97405         9.73752         0.31686
   S        9.08470         8.03053         0.33056
   C        9.83514        10.86269         0.32199
   C        9.05409        12.02970         0.29813
   C        7.65257        11.64740         0.27760
   C        6.56839        12.47610         0.25164
   C        5.24776        11.98281         0.23096
   N        4.17185        11.58482         0.21478
   C        6.69558        13.88059         0.24439
   N        6.79381        15.02312         0.23944
   C        9.82058        13.19761         0.29624
   C       11.17509        12.93037         0.31766
   S       11.50953        11.20051         0.34290
   C       12.25161        13.85272         0.31631
   C       13.60545        13.57209         0.33549
   C       14.41594        14.70627         0.32145
   C       13.64845        15.87685         0.29071
   S       11.95351        15.57370         0.28069
   C       14.37598        17.08919         0.26852
   C       15.77464        16.95879         0.28338
  Si       16.23793        15.14296         0.32407
   C       17.11318        14.63593         1.89990
   C       17.13446        14.57332        -1.21780
   C       16.40018        18.20021         0.25923
   C       15.52721        19.27978         0.22702
   S       13.85999        18.72116         0.21128
   C       15.73538        20.67553         0.16965
   C       16.88146        21.39356         0.34366
   S       16.85474        23.14167         0.09869
   C       18.60734        23.29562         0.49627
   O       19.19259        24.34451         0.47427
   C       19.09825        21.97256         0.82331
   C       18.19005        20.98099         0.74017
   H       -2.77161         1.28146        -0.19703
   H       -0.77123         2.78576        -0.07653
   H        0.81592        -1.09398        -0.02646
   H       -1.85831        -1.25647        -0.16992
   H        3.62041         4.78492         0.14088
   H        7.36257         2.89303         0.35244
   H        5.45229         1.01024         0.25847
   H        5.64552         9.27211         0.25700
   H        9.42772        14.19838         0.27918
   H       13.97978        12.56338         0.35768
   H       16.59019        14.97809         2.79088
   H       18.12258        15.03938         1.94698
   H       17.20193        13.55421         1.97763
   H       16.62035        14.87427        -2.12854
   H       17.23010        13.48981        -1.24811
   H       18.14194        14.98077        -1.27036
   H       17.46812        18.30896         0.22699
   H       14.84583        21.25573        -0.04306
   H       20.12771        21.85643         1.11373
   H       18.40563        19.95665         0.98401
*
