# ORCA input file
# SCF done       -168.271793494881          0.000759593330
! CAM-B3LYP def2-SVP def2/J RIJCOSX Grid4 TightSCF
%maxcore 5000
%tddft
    Mode sTDDFT
    Ethresh 5.0
    maxcore 5000
end

%pal
  nprocs 6
  end
* xyz 0 1
   C        4.56632         1.51618         1.57414
   C        4.37922         0.70880         2.81886
   O        3.91695        -0.40853         2.87160
   C        4.91620         1.54341         3.90513
   C        5.27049         2.79498         3.39827
   C        4.91679         2.86012         1.98281
   C        4.70759         4.01079         1.27003
   C        4.10398         4.04350        -0.00354
   N        3.59060         4.12857        -1.02652
   C        4.98368         5.30696         1.75366
   N        5.21212         6.38302         2.08079
   C        5.83869         3.76618         4.23282
   C        6.02724         3.46726         5.55722
   C        5.66077         2.21848         6.10552
   C        5.09161         1.21821         5.26420
   C        4.73038        -0.02879         5.81349
   C        4.92130        -0.27317         7.14561
   C        5.47905         0.70920         7.97968
   C        5.84203         1.92694         7.47270
   C        4.46836         0.88797         0.37575
   C        4.90325         1.29448        -0.91118
   C        5.86539         2.21785        -1.27393
   C        6.02067         2.28655        -2.65682
   C        5.18013         1.41810        -3.36808
   S        4.20653         0.48226        -2.30380
   C        5.31750         1.50218        -4.75492
   C        6.26543         2.43588        -5.10730
   S        6.99882         3.22285        -3.72528
   C        6.70197         2.82076        -6.41889
   C        6.26256         2.26172        -7.57710
   C        6.76488         2.71606        -8.83637
   C        6.34399         2.16952       -10.03584
   C        6.83928         2.62192       -11.26932
   N        7.24345         2.99837       -12.27652
   C        5.39862         1.13249       -10.07889
   N        4.62854         0.28008       -10.09939
   C        7.72918         3.76899        -8.77321
   C        8.11988         4.27740        -7.57465
   O        7.62312         3.81958        -6.39624
   C        9.07904         5.33554        -7.42374
   C        9.50165         5.90105        -6.24049
   C       10.44483         6.90502        -6.46753
   C       10.74089         7.11172        -7.82104
   S        9.84156         6.04150        -8.83013
   C       11.66803         8.12787        -8.05025
   C       12.12705         8.68118        -6.87362
   S       11.34934         7.97402        -5.46310
   C       13.04276         9.76488        -6.77840
   C       13.82317        10.14431        -5.73948
   C       14.37073        11.53427        -5.69480
   O       14.41850        12.30692        -6.62497
   C       14.76386        11.74216        -4.29127
   C       14.62178        10.54675        -3.58302
   C       14.19796         9.49435        -4.49909
   C       14.39463         8.15135        -4.32633
   C       14.25078         7.21354        -5.37154
   N       14.19720         6.43441        -6.21246
   C       14.85786         7.56563        -3.13030
   N       15.21540         7.03583        -2.17722
   C       14.91289        10.48812        -2.21425
   C       15.34636        11.62612        -1.58534
   C       15.51460        12.84769        -2.27437
   C       15.21579        12.92103        -3.66641
   C       15.38201        14.14292        -4.34928
   C       15.82985        15.24839        -3.67973
   C       16.12766        15.18168        -2.30922
   C       15.97368        14.00931        -1.62105
   H        6.13354         4.72669         3.84258
   H        6.46771         4.20381         6.21355
   H        4.30287        -0.77570         5.16345
   H        4.64273        -1.22756         7.56654
   H        5.61998         0.49454         9.02858
   H        6.27095         2.68423         8.11276
   H        4.03575        -0.10762         0.42601
   H        6.45116         2.78092        -0.57071
   H        4.75257         0.91663        -5.45501
   H        5.53371         1.46943        -7.55664
   H        8.14864         4.16096        -9.68631
   H        9.14255         5.59288        -5.27614
   H       12.02013         8.42874        -9.01946
   H       13.06823        10.42470        -7.64113
   H       14.78745         9.57012        -1.66321
   H       15.57142        11.60076        -0.52891
   H       15.15009        14.18262        -5.40184
   H       15.95785        16.18387        -4.20335
   H       16.48014        16.06682        -1.80084
   H       16.20296        13.95571        -0.56666
*
