# ORCA input file
# SCF done       -239.173325425147          0.000632710785
! CAM-B3LYP def2-SVP def2/J RIJCOSX Grid4 TightSCF
%maxcore 5000
%tddft
    Mode sTDDFT
    Ethresh 5.0
    maxcore 5000
end

%pal
  nprocs 6
  end
* xyz 0 1
   C        4.22784         0.68935        -2.14593
   C        4.27003         2.07337        -2.70148
   O        4.33012         3.09774        -2.05877
   C        4.27996         1.89921        -4.16591
   C        4.11224         0.54893        -4.47483
   C        3.90940        -0.20264        -3.24043
   C        3.29153        -1.42118        -3.14326
   C        2.84291        -1.95861        -1.91839
   N        2.42039        -2.41925        -0.95588
   C        2.97771        -2.24870        -4.23945
   N        2.73759        -2.98689        -5.08557
   C        4.12078         0.11349        -5.80620
   C        4.29204         1.04117        -6.80019
   C        4.44804         2.41718        -6.52327
   C        4.44425         2.87098        -5.17185
   C        4.60104         4.24550        -4.90053
   C        4.75331         5.13538        -5.92772
   C        4.75790         4.69403        -7.26078
   C        4.60952         3.36606        -7.55315
   C        4.60099         0.48203        -0.85603
   C        5.01451        -0.72026        -0.22805
   C        5.43777        -1.89472        -0.79688
   C        5.84770        -2.86691         0.13645
   C        6.33054        -4.16373        -0.13822
   C        6.30016        -4.68734        -1.48629
   C        5.28085        -4.58056        -2.39238
   C        5.56077        -5.20177        -3.62443
   C        6.79220        -5.78073        -3.66835
   S        7.63252        -5.58026        -2.16341
   C        7.42653        -6.52012        -4.79027
   C        6.77885        -4.89858         0.95166
   C        6.72805        -4.41488         2.28650
   C        6.21226        -3.12961         2.56345
   C        5.77139        -2.39186         1.47055
   S        5.14521        -0.76955         1.51994
   C        6.16753        -2.61053         3.91411
   C        7.11570        -2.70974         4.89429
   C        6.74243        -2.07649         6.09569
   C        5.51081        -1.49915         6.04448
   S        4.78509        -1.71656         4.48587
   C        4.79015        -0.75808         7.11189
   C        7.18609        -5.38698         3.20658
   C        7.57821        -6.54815         2.60611
   S        7.39902        -6.52366         0.87532
   C        8.09671        -7.73164         3.22752
   N        8.30047        -8.79961         2.43497
   C        8.73480        -9.88401         3.01752
   C        8.93320        -9.91209         4.41542
   N        8.78335        -8.78096         5.11105
   N        8.38554        -7.70208         4.52981
   C        9.33738       -11.08907         5.13029
   C        9.29623       -12.38252         4.69826
   C        9.77440       -13.30871         5.65429
   C        9.81929       -14.71474         5.54686
   C        9.43295       -15.42846         4.34800
   C        8.78163       -16.62723         4.25729
   C        8.61666       -17.07715         2.93276
   C        9.15079       -16.23956         2.00324
   S        9.86487       -14.85318         2.75917
   C        9.17600       -16.38836         0.52539
   C       10.28642       -15.39639         6.66323
   C       10.72549       -14.75681         7.85040
   C       10.66996       -13.35130         7.95990
   C       10.18994       -12.66417         6.84665
   S        9.96690       -10.93767         6.74795
   C       11.07054       -12.64299         9.15572
   C       11.72435       -11.44505         9.24643
   C       11.91553       -11.01031        10.57169
   C       11.39748       -11.85714        11.50291
   S       10.66900       -13.23548        10.74719
   C       11.40167       -11.72422        12.98259
   C       11.23209       -15.68667         8.78631
   C       11.21062       -16.98504         8.35335
   S       10.48318       -17.12159         6.76248
   C       11.60950       -18.12294         9.10625
   C       11.88222       -19.37375         8.66151
   C       11.81291       -20.53525         9.59437
   O       11.82570       -20.48188        10.80405
   C       11.66631       -21.71376         8.72003
   C       11.80200       -21.32631         7.38572
   C       12.10565       -19.90132         7.33049
   C       12.74440       -19.25138         6.30956
   C       13.29560       -17.95879         6.45237
   N       13.81506       -16.94093         6.55858
   C       13.01046       -19.82280         5.04965
   N       13.23688       -20.23473         4.00237
   C       11.67788       -22.26314         6.35200
   C       11.42129       -23.56955         6.67651
   C       11.28785       -23.99763         8.01592
   C       11.41178       -23.05273         9.07600
   C       11.27537       -23.48524        10.41075
   C       11.02723       -24.80198        10.68459
   C       10.90439       -25.73716         9.64447
   C       11.03163       -25.34539         8.34010
   H        4.00825        -0.93161        -6.04567
   H        4.30825         0.72261        -7.83254
   H        4.59684         4.57226        -3.87269
   H        4.87163         6.18821        -5.71956
   H        4.88029         5.41429        -8.05614
   H        4.61215         3.02425        -8.57814
   H        4.66750         1.37915        -0.24834
   H        5.52878        -2.03852        -1.85814
   H        4.33707        -4.12186        -2.15760
   H        4.86748        -5.21426        -4.44675
   H        7.56891        -7.56783        -4.52554
   H        8.40430        -6.10130        -5.02503
   H        6.79568        -6.46520        -5.67401
   H        8.06972        -3.18294         4.74636
   H        7.36924        -2.05148         6.96940
   H        5.38200        -0.74991         8.02396
   H        3.82730        -1.22348         7.32025
   H        4.60192         0.27053         6.80492
   H        7.20683        -5.26275         4.27279
   H        8.95512       -10.73176         2.38297
   H        8.90718       -12.66902         3.73911
   H        8.39411       -17.15393         5.11069
   H        8.11786       -17.99556         2.67914
   H       10.20225       -16.44030         0.16219
   H        8.69487       -15.53795         0.04283
   H        8.65583       -17.29825         0.23614
   H       12.09330       -10.90867         8.39153
   H       12.42012       -10.09516        10.82542
   H       11.90033       -10.80199        13.27054
   H       11.92088       -12.56414        13.44377
   H       10.38343       -11.70988        13.37078
   H       11.64906       -15.41227         9.73779
   H       11.60840       -17.99457        10.18419
   H       11.76935       -21.96013         5.32140
   H       11.31590       -24.30544         5.89236
   H       11.37066       -22.75768        11.20120
   H       10.92315       -25.13256        11.70719
   H       10.70751       -26.77180         9.88351
   H       10.93843       -26.06340         7.53806
*
