# ORCA input file
# SCF done       -247.728773203884          0.000595212965
! CAM-B3LYP def2-SVP def2/J RIJCOSX Grid4 TightSCF
%maxcore 5000
%tddft
    Mode sTDDFT
    Ethresh 5.0
    maxcore 5000
end

%pal
  nprocs 6
  end
* xyz 0 1
   C        2.98442         2.60475         0.03501
   C        1.90907         3.10208        -0.87084
   O        1.33376         2.45562        -1.71810
   C        1.67783         4.49655        -0.45232
   C        2.62664         4.86192         0.50458
   C        3.56182         3.75907         0.69388
   C        4.84911         3.86275         1.14637
   C        5.80598         2.84022         0.95957
   N        6.62570         2.06472         0.75027
   C        5.38543         5.01553         1.75254
   N        5.85752         5.91799         2.28214
   C        2.60273         6.13636         1.08498
   C        1.63124         7.01948         0.69220
   C        0.66520         6.68765        -0.28347
   C        0.67839         5.39281        -0.87909
   C       -0.28772         5.06616        -1.85223
   C       -1.22929         5.98659        -2.22187
   C       -1.24743         7.26349        -1.63834
   C       -0.32254         7.60717        -0.69086
   C        3.14182         1.27180         0.22528
   C        3.77407         0.58982         1.29876
   C        4.07528        -0.74741         1.32602
   C        4.64735        -1.18380         2.54062
   C        5.10312        -2.47878         2.86882
   C        4.92566        -3.58893         1.95824
   C        3.82626        -3.89935         1.20562
   C        3.99569        -5.05838         0.42440
   C        5.22224        -5.63242         0.56700
   S        6.19661        -4.75083         1.69603
   C        5.75819        -6.84698        -0.10011
   C        5.71094        -2.62384         4.11130
   C        5.88982        -1.54643         5.01901
   C        5.44401        -0.24576         4.68635
   C        4.79217        -0.11877         3.46628
   S        4.14141         1.36246         2.82921
   C        5.70752         0.88529         5.54532
   C        6.83592         1.14394         6.27664
   C        6.78669         2.37059         6.96419
   C        5.62719         3.05724         6.76979
   S        4.56335         2.19083         5.71064
   C        5.22639         4.37589         7.32301
   C        6.48055        -1.97492         6.22634
   C        6.75120        -3.31704         6.24469
   S        6.29106        -4.12808         4.77555
   C        7.34784        -4.06159         7.30505
   N        7.41685        -5.37482         7.19637
   N        7.94814        -6.15219         8.09820
   C        8.51355        -5.69814         9.20311
   C        8.51755        -4.29050         9.44299
   C        7.89234        -3.43736         8.46954
   N        8.00015        -2.19994         8.90600
   O        8.64647        -2.27739        10.07145
   N        8.96623        -3.52299        10.41221
   C        9.09605        -6.63042        10.11469
   C        9.04330        -7.99608        10.01720
   C        9.72461        -8.65570        11.06081
   C        9.84388       -10.04832        11.27735
   C        9.10460       -10.99196        10.47079
   C        7.82212       -10.87661        10.00582
   C        7.39685       -11.99192         9.26067
   C        8.34669       -12.96083         9.14396
   S        9.79900       -12.51241         9.97598
   C        8.26103       -14.25866         8.42625
   C       10.68948       -10.43890        12.30990
   C       11.34582        -9.51379        13.16235
   C       11.13839        -8.12480        13.01409
   C       10.35370        -7.73214        11.93862
   S        9.99910        -6.08299        11.50183
   C       11.70086        -7.19089        13.96435
   C       11.73579        -7.31279        15.32664
   C       12.35620        -6.22463        15.96910
   C       12.80161        -5.27103        15.10518
   S       12.44325        -5.69754        13.46255
   C       13.50314        -3.99831        15.41353
   C       12.17935       -10.15552        14.09915
   C       12.14523       -11.52548        14.02714
   S       11.08081       -12.07553        12.74769
   C       12.89796       -12.48681        14.74858
   C       13.60664       -12.34232        15.89833
   C       14.66126       -13.34506        16.22888
   O       14.78298       -14.44097        15.72889
   C       15.51893       -12.68466        17.22966
   C       14.96006       -11.45589        17.58357
   C       13.68606       -11.29213        16.89082
   C       12.66496       -10.46708        17.28217
   C       11.35313       -10.58217        16.77674
   N       10.26237       -10.66710        16.42993
   C       12.77764        -9.46290        18.26382
   N       12.81790        -8.59926        19.01924
   C       15.60192       -10.61827        18.50493
   C       16.78827       -11.03066        19.05334
   C       17.37479       -12.27305        18.72612
   C       16.73102       -13.13300        17.78898
   C       17.31932       -14.37272        17.46561
   C       18.49863       -14.74607        18.04868
   C       19.13775       -13.90271        18.97180
   C       18.58992       -12.69398        19.30356
   H        3.32624         6.41255         1.83498
   H        1.59307         8.00493         1.13380
   H       -0.26402         4.08201        -2.29282
   H       -1.96833         5.73612        -2.96820
   H       -2.00040         7.97455        -1.94469
   H       -0.33421         8.58965        -0.24138
   H        2.63713         0.63619        -0.49612
   H        3.93663        -1.38588         0.47257
   H        2.90757        -3.34167         1.24761
   H        3.23157        -5.45292        -0.22175
   H        5.01511        -7.25820        -0.77905
   H        6.02017        -7.60503         0.63746
   H        6.65878        -6.60902        -0.66541
   H        7.69656         0.50027         6.28151
   H        7.58953         2.73390         7.58063
   H        5.98817         4.73778         8.00912
   H        4.27818         4.29984         7.85422
   H        5.10220         5.10368         6.52105
   H        6.67273        -1.34044         7.07164
   H        8.54864        -8.48189         9.19727
   H        7.18718       -10.03913        10.23172
   H        6.41618       -12.07309         8.82654
   H        8.48650       -15.08537         9.09880
   H        8.97848       -14.29237         7.60642
   H        7.26096       -14.39475         8.02192
   H       11.27457        -8.13007        15.85138
   H       12.46560        -6.15764        17.03704
   H       13.65841        -3.91102        16.48601
   H       12.91705        -3.14573        15.07143
   H       14.46962        -3.95928        14.91166
   H       12.83815        -9.61353        14.75321
   H       12.98858       -13.46085        14.27722
   H       15.17908        -9.66260        18.76985
   H       17.30016       -10.39483        19.76127
   H       16.81954       -15.01125        16.75446
   H       18.94832       -15.69611        17.80173
   H       20.06901       -14.21734        19.41911
   H       19.07973       -12.04405        20.01423
*
