# ORCA input file
# SCF done       -186.456283312402          0.000822445655
! CAM-B3LYP def2-SVP def2/J RIJCOSX Grid4 TightSCF
%maxcore 5000
%tddft
    Mode sTDDFT
    Ethresh 5.0
    maxcore 5000
end

%pal
  nprocs 6
  end
* xyz 0 1
   C       15.75660       -11.90867        -5.93849
   C       16.90995       -12.41878        -6.71541
   O       17.86607       -11.76897        -7.08880
   C       16.61195       -13.84407        -6.96351
   C       15.43597       -14.19001        -6.29879
   C       14.95371       -13.03182        -5.54392
   C       14.06030       -13.07941        -4.49949
   C       13.84935       -12.01924        -3.59479
   N       13.67677       -11.21193        -2.79605
   C       13.33364       -14.22674        -4.12691
   N       12.69168       -15.11752        -3.78828
   C       14.91425       -15.48484        -6.39989
   C       15.58428       -16.40783        -7.16129
   C       16.78348       -16.09387        -7.83581
   C       17.32162       -14.77710        -7.74260
   C       18.51803       -14.46727        -8.42163
   C       19.15629       -15.42377        -9.16129
   C       18.63121       -16.72300        -9.25530
   C       17.47193       -17.05143        -8.60861
   C       15.56079       -10.55223        -5.80239
   C       14.36130        -9.91724        -5.49125
   C       14.22478        -8.56204        -5.25394
   C       15.21676        -7.56136        -5.15636
   C       14.72465        -6.32233        -4.85962
   C       13.32363        -6.28226        -4.71295
   S       12.64633        -7.87176        -4.96314
   C       12.51737        -5.19275        -4.41486
   C       12.91673        -3.86612        -4.16503
   C       11.86401        -3.04215        -3.89984
   C       10.59055        -3.66887        -3.93142
   S       10.77599        -5.36432        -4.30511
   C        9.43130        -2.95677        -3.69476
   C        8.07134        -3.31294        -3.68615
   C        7.10641        -2.31904        -3.42221
   C        5.75798        -2.56742        -3.41438
   C        5.22782        -3.84378        -3.67087
   C        6.17403        -4.89601        -3.92823
   N        5.72441        -6.13684        -4.16325
   C        6.59830        -7.08784        -4.39312
   C        7.97285        -6.83276        -4.40010
   N        8.42890        -5.62420        -4.17492
   C        7.57092        -4.63059        -3.93471
   C        3.86332        -4.17901        -3.70534
   C        2.73524        -3.41353        -3.51098
   C        1.41844        -3.92352        -3.60889
   C        0.43438        -3.00582        -3.38664
   C        0.91694        -1.71656        -3.09551
   S        2.66418        -1.70387        -3.11704
   C        0.17177        -0.58127        -2.81942
   C        0.64287         0.70873        -2.50981
   C       -0.34733         1.61999        -2.27846
   C       -1.65154         1.09058        -2.39715
   S       -1.57688        -0.60513        -2.81352
   C       -2.87508         1.71867        -2.25785
   C       -3.04156         3.03942        -1.84939
   C       -4.22904         3.73010        -1.75752
   C       -4.32014         4.92160        -0.88164
   O       -3.38544         5.52045        -0.38800
   C       -5.76564         5.17135        -0.71391
   C       -6.48168         4.27969        -1.51185
   C       -5.54049         3.45853        -2.27635
   C       -5.84671         2.74708        -3.41235
   C       -4.88145         2.22019        -4.29416
   N       -4.13932         1.81669        -5.07248
   C       -7.15327         2.55820        -3.90274
   N       -8.19436         2.34872        -4.34079
   C       -7.88135         4.28385        -1.50504
   C       -8.53414         5.18315        -0.70131
   C       -7.83930         6.10679         0.10855
   C       -6.41384         6.11035         0.11019
   C       -5.72324         7.03297         0.92272
   C       -6.41697         7.91676         1.70180
   C       -7.82143         7.91736         1.70449
   C       -8.51736         7.03367         0.92675
   H       13.99776       -15.75289        -5.89999
   H       15.19165       -17.41017        -7.25481
   H       18.91084       -13.46591        -8.34211
   H       20.07266       -15.18597        -9.68077
   H       19.15225       -17.46287        -9.84495
   H       17.06584       -18.05035        -8.67869
   H       16.41831        -9.94233        -6.06122
   H       13.45664       -10.50772        -5.45651
   H       16.26056        -7.77672        -5.29520
   H       15.33405        -5.44404        -4.74297
   H       13.94433        -3.54871        -4.18082
   H       11.96222        -1.99247        -3.68235
   H        9.60894        -1.90698        -3.48136
   H        7.45339        -1.31533        -3.22197
   H        5.08217        -1.75289        -3.20806
   H        6.20035        -8.07623        -4.57644
   H        8.71158        -7.59907        -4.58677
   H        3.67529        -5.22189        -3.93113
   H        1.24102        -4.95775        -3.84428
   H       -0.62106        -3.21085        -3.42164
   H        1.69685         0.92307        -2.46798
   H       -0.17067         2.65171        -2.03526
   H       -3.75324         1.11818        -2.44799
   H       -2.18072         3.57238        -1.46283
   H       -8.43980         3.58689        -2.10848
   H       -9.61439         5.19396        -0.67869
   H       -4.64479         7.02146         0.91272
   H       -5.88754         8.62336         2.32361
   H       -8.34901         8.62377         2.32846
   H       -9.59796         7.03265         0.92657
*
