# ORCA input file
# SCF done       -232.110340076289          0.000453054827
! CAM-B3LYP def2-SVP def2/J RIJCOSX Grid4 TightSCF
%maxcore 5000
%tddft
    Mode sTDDFT
    Ethresh 5.0
    maxcore 5000
end

%pal
  nprocs 6
  end
* xyz 0 1
   C        3.32737         3.64369        -2.13664
   C        2.82848         4.95033        -1.59578
   O        3.44502         5.69401        -0.86923
   C        1.50101         5.12798        -2.20333
   C        1.14123         3.96317        -2.88324
   C        2.18899         2.96321        -2.72315
   C        2.04829         1.61973        -2.93051
   C        3.04511         0.66699        -2.64864
   N        3.81242        -0.16166        -2.44131
   C        0.86430         1.00887        -3.39978
   N       -0.06498         0.45150        -3.77504
   C       -0.06292         3.89510        -3.59581
   C       -0.88062         4.99428        -3.60875
   C       -0.55276         6.18393        -2.92127
   C        0.67093         6.26579        -2.19424
   C        0.99793         7.45690        -1.51528
   C        0.14359         8.52463        -1.55178
   C       -1.06409         8.44910        -2.26390
   C       -1.40550         7.30596        -2.93396
   C        4.66027         3.42668        -2.15055
   C        5.45175         2.45372        -2.86070
   C        6.68367         2.03489        -2.13964
   C        7.75795         2.91619        -2.05787
   C        8.90226         2.55545        -1.37450
   C        8.99653         1.29867        -0.78092
   C        7.91905         0.42007        -0.86059
   C        6.76419         0.79167        -1.52445
   C       10.24866         0.95577        -0.04026
   O       10.90892         1.76794         0.54121
   O       10.60762        -0.34331        -0.06378
   C        5.20893         2.00654        -4.11545
   C        4.12128         2.50411        -4.96929
   C        3.30642         1.59689        -5.64848
   C        2.21157         2.04420        -6.36034
   C        1.92214         3.40538        -6.41526
   C        2.77493         4.31968        -5.79858
   C        3.86819         3.87071        -5.08948
   C        0.70508         3.84329        -7.13437
   O       -0.01633         3.11482        -7.76599
   O        0.45745         5.15705        -7.00465
   C        6.09064         1.00587        -4.72239
   C        7.05630         1.23449        -5.66251
   F        7.30782         2.44894        -6.16349
   C        7.79336         0.08354        -6.01607
   F        8.78087         0.11907        -6.90803
   C        7.36840        -1.04932        -5.36684
   S        6.03438        -0.67169        -4.31481
   C        7.88691        -2.40343        -5.41772
   C        6.87183        -3.46025        -5.47438
   C        6.96112        -4.61761        -4.70028
   C        6.06594        -5.64969        -4.88803
   C        5.06655        -5.55013        -5.85516
   C        4.90450        -4.35566        -6.54884
   C        5.79598        -3.31829        -6.35307
   C        4.20181        -6.74446        -6.11512
   O        3.88164        -7.50992        -5.24714
   O        3.82872        -6.93664        -7.38425
   C        9.23576        -2.63129        -5.38055
   C       10.14528        -1.50223        -5.07916
   C        9.90693        -0.67617        -3.98033
   C       10.72667         0.40256        -3.73441
   C       11.81047         0.66447        -4.56961
   C       12.07930        -0.18184        -5.64027
   C       11.25082        -1.25904        -5.88907
   C       12.62424         1.86896        -4.28683
   O       12.30977         2.72753        -3.50120
   O       13.75686         1.92697        -4.99927
   C        9.91534        -3.88953        -5.50399
   C        9.63322        -5.07827        -6.09403
   C       10.45383        -6.25922        -5.67080
   O       11.52432        -6.20773        -5.10981
   C        9.64586        -7.43552        -6.02574
   C        8.52008        -7.02577        -6.74340
   C        8.57289        -5.58054        -6.93746
   C        7.87425        -4.86417        -7.87412
   C        8.17243        -3.52066        -8.17952
   N        8.41808        -2.44035        -8.47526
   C        6.78894        -5.38187        -8.59797
   N        5.83421        -5.74004        -9.12984
   C        7.57053        -7.96391        -7.16771
   C        7.76384        -9.28556        -6.86069
   C        8.89680        -9.73242        -6.14650
   C        9.87476        -8.78935        -5.71321
   C       11.00599        -9.23909        -5.00214
   C       11.16290       -10.57111        -4.73387
   C       10.20298       -11.50411        -5.15835
   C        9.09432       -11.09570        -5.84830
   H       -0.33387         3.00433        -4.13887
   H       -1.80992         4.96184        -4.15871
   H        1.92806         7.50374        -0.97132
   H        0.39366         9.43649        -1.03080
   H       -1.72356         9.30399        -2.27891
   H       -2.33510         7.24573        -3.48094
   H        5.23441         4.10910        -1.52809
   H        7.69676         3.88321        -2.53433
   H        9.74132         3.23034        -1.30141
   H        7.95055        -0.54261        -0.36714
   H        5.91739         0.12355        -1.56088
   H       10.01516        -0.88076        -0.60560
   H        3.51409         0.53838        -5.58285
   H        1.55674         1.35201        -6.86723
   H        2.57012         5.37563        -5.87751
   H        4.53548         4.57708        -4.61906
   H       -0.34180         5.38714        -7.50396
   H        7.74324        -4.70547        -3.96101
   H        6.13566        -6.55803        -4.30897
   H        4.08752        -4.23145        -7.24520
   H        5.69332        -2.40791        -6.92514
   H        4.26283        -6.34724        -8.03053
   H        9.06836        -0.87953        -3.32762
   H       10.54492         1.06899        -2.90568
   H       12.92333         0.01909        -6.28040
   H       11.43269        -1.89824        -6.73963
   H       14.24528         2.73451        -4.77506
   H       10.87024        -3.90624        -4.97983
   H        6.69441        -7.66089        -7.71558
   H        7.03143       -10.01634        -7.17032
   H       11.73632        -8.51410        -4.67935
   H       12.02999       -10.91542        -4.19059
   H       10.34740       -12.55045        -4.93432
   H        8.35437       -11.81097        -6.17596
*
