# ORCA input file
# SCF done       -187.766656340478          0.000673588572
! CAM-B3LYP def2-SVP def2/J RIJCOSX Grid4 TightSCF
%maxcore 5000
%tddft
    Mode sTDDFT
    Ethresh 5.0
    maxcore 5000
end

%pal
  nprocs 6
  end
* xyz 0 1
   C        3.64215        -8.17118        -8.65607
   C        4.58072        -7.77881        -9.60571
   C        4.14133        -7.54566       -11.01582
   C        5.92749        -7.60339        -9.24867
   C        6.93356        -7.18624       -10.27272
   C        6.32248        -7.81874        -7.93303
   C        5.38412        -8.20438        -6.99690
   C        4.03744        -8.38998        -7.34636
   C        3.29876        -8.81058        -6.16262
   C        1.99261        -9.22165        -6.15672
   C        1.16843        -9.23810        -7.30284
   N        0.44194        -9.27235        -8.19124
   C        1.27549        -9.72471        -5.04929
   N        0.61545       -10.16538        -4.21894
   C        4.21956        -8.77736        -5.03045
   C        5.57511        -8.47699        -5.56342
   O        6.63537        -8.44977        -4.97337
   C        3.81432        -8.90237        -3.73420
   C        4.53566        -8.88987        -2.51500
   C        5.87714        -8.86100        -2.22608
   C        6.15861        -8.86999        -0.84408
   C        4.97704        -8.91361        -0.04904
   S        3.55547        -8.94519        -1.04429
   C        5.01591        -8.92596         1.32772
   C        6.26624        -8.89172         1.94567
   C        7.44722        -8.84683         1.15321
   C        7.40964        -8.83800        -0.22130
   S        8.87628        -8.80175         2.14881
   C        7.89853        -8.84566         3.60484
   C        6.55933        -8.89159         3.32991
   C        8.56028        -8.82630         4.88060
   C        7.93495        -8.88262         6.11796
   F        6.59538        -8.96503         6.20266
   C        8.62761        -8.85973         7.33973
   F        7.86903        -8.92252         8.44830
   C       10.00864        -8.77470         7.45440
   C       10.67735        -8.71352         6.20617
   C        9.96940        -8.74203         4.96911
   N       10.87638        -8.67329         3.98753
   N       12.02134        -8.61012         4.60373
   N       11.98227        -8.62841         5.90744
   C       13.25336        -8.52270         3.88293
   C       10.72150        -8.75161         8.70107
   C       12.07649        -8.62997         8.84678
   C       12.50345        -8.64345        10.19391
   C       11.41186        -8.78510        11.09516
   S        9.89910        -8.88892        10.24470
   C       11.58445        -8.83228        12.45977
   C       12.88540        -8.73806        12.95781
   C       13.97488        -8.58422        12.05571
   C       13.80274        -8.53917        10.69123
   S       15.48586        -8.47254        12.90619
   C       14.67560        -8.68807        14.44919
   C       13.31753        -8.79714        14.30161
   C       15.46315        -8.65481        15.63133
   C       15.19972        -9.15052        16.86608
   C       16.00521        -8.65472        18.02398
   O       17.02625        -8.00953        17.96347
   C       15.25899        -9.07758        19.21953
   C       14.16260        -9.87072        18.83585
   C       13.30585       -10.36195        19.80593
   C       13.54628       -10.07895        21.14739
   C       14.65204        -9.29970        21.52467
   C       15.50517        -8.79632        20.54836
   C       14.91653        -9.01078        22.96735
   C       12.61777       -10.61788        22.18787
   C       14.19087       -10.05203        17.38755
   C       13.56236       -11.06113        16.70743
   C       13.81730       -11.38795        15.36011
   N       14.01832       -11.72861        14.28278
   C       12.64753       -11.95551        17.30077
   N       11.87857       -12.69372        17.72690
   H        2.61418        -8.29455        -8.95607
   H        3.07579        -7.72839       -11.12310
   H        4.67771        -8.20511       -11.69727
   H        4.35142        -6.52006       -11.31770
   H        6.65861        -6.22755       -10.71153
   H        6.98198        -7.91523       -11.08110
   H        7.92062        -7.09464        -9.82786
   H        7.35195        -7.68832        -7.63412
   H        2.74647        -9.00991        -3.58033
   H        6.63721        -8.83089        -2.98491
   H        4.11262        -8.95995         1.91563
   H        8.31157        -8.80402        -0.81096
   H        5.79201        -8.92242         4.08069
   H       13.02129        -8.56640         2.82157
   H       13.90493        -9.35057         4.16306
   H       13.75664        -7.58457         4.11944
   H       12.74058        -8.53677         8.00788
   H       10.74693        -8.94943        13.12896
   H       14.64034        -8.42920        10.02136
   H       12.63687        -8.87870        15.13118
   H       16.39632        -8.10341        15.55524
   H       12.44674       -10.95672        19.53823
   H       16.35996        -8.19373        20.81685
   H       14.06984        -8.49284        23.41667
   H       15.80232        -8.39182        23.07988
   H       15.06649        -9.93685        23.52154
   H       11.82432       -11.20307        21.73155
   H       12.16904        -9.80565        22.75898
   H       13.15828       -11.25278        22.88900
*
