# ORCA input file
# SCF done       -202.038537358890          0.000807860514
! CAM-B3LYP def2-SVP def2/J RIJCOSX Grid4 TightSCF
%maxcore 5000
%tddft
    Mode sTDDFT
    Ethresh 5.0
    maxcore 5000
end

%pal
  nprocs 6
  end
* xyz 0 1
   C       -4.61183        -3.70723         0.25178
   C       -6.00137        -3.61875         0.25068
   C       -6.65761        -2.40747        -0.33150
   C       -6.78123        -4.65167         0.79304
   C       -8.27285        -4.54728         0.80455
   C       -6.16038        -5.77872         1.32273
   C       -4.78334        -5.86258         1.31463
   C       -3.99575        -4.82413         0.78778
   C       -2.58548        -5.16238         0.96766
   C       -1.55674        -4.25300         0.96187
   C       -1.70219        -2.90483         0.57996
   N       -1.75189        -1.80549         0.25051
   C       -0.24967        -4.52167         1.41156
   N        0.82103        -4.65668         1.80479
   C       -2.53072        -6.53653         1.40868
   C       -3.90866        -6.94695         1.79558
   O       -4.22660        -7.97531         2.35066
   C       -1.52948        -7.46367         1.45825
   C       -0.27021        -7.44801         0.82953
   C        0.16973        -6.71566        -0.27039
   C        1.48642        -6.95859        -0.61072
   C        2.08359        -7.89154         0.24529
   S        0.99467        -8.50638         1.41990
   C        3.45927        -8.12497         0.05568
   C        4.07668        -7.37685        -0.95378
  Si        2.79373        -6.26760        -1.79744
   C        2.48365        -6.75168        -3.60885
   C        3.08090        -4.41438        -1.51142
   C        5.43532        -7.62592        -1.02024
   C        5.88030        -8.55624        -0.08440
   S        4.55703        -9.15114         0.89321
   C        7.20454        -9.00577         0.16875
   C        8.36385        -8.48450        -0.45532
   C        9.68199        -8.92633        -0.08773
   N       10.75442        -8.37742        -0.69060
   C       10.59663        -7.46594        -1.59424
   C        9.29839        -7.03774        -1.96043
   N        8.24163        -7.53401        -1.40503
   F        9.11748        -6.10334        -2.89613
   F       11.68454        -6.94956        -2.16034
   C        9.92837        -9.91489         0.89432
   C        8.76983       -10.47295         1.48601
   C        7.44866       -10.01501         1.13019
   N        6.50306       -10.65519         1.81552
   S        7.18837       -11.72061         2.80056
   N        8.72017       -11.42767         2.41582
   C       11.24526       -10.28532         1.27053
   C       11.61289       -11.25736         2.19954
   C       12.97929       -11.35594         2.38724
   C       13.67542       -10.43986         1.58870
   S       12.64175        -9.48217         0.60044
   C       15.07585       -10.43771         1.72883
   C       15.62064       -11.33640         2.65158
  Si       14.21625       -12.35420         3.41716
   C       14.02704       -12.06303         5.28550
   C       14.29715       -14.18639         2.92666
   C       16.99643       -11.21202         2.73676
   C       17.53035       -10.26167         1.87252
   S       16.26422        -9.46869         0.95728
   C       18.88554        -9.87312         1.80303
   C       19.52083        -9.13693         0.84952
   C       20.76951        -8.39999         1.18936
   O       21.46967        -8.56995         2.16246
   C       20.91338        -7.39115         0.12308
   C       19.93070        -7.60109        -0.86112
   C       19.85432        -6.74797        -1.94688
   C       20.75498        -5.69202        -2.05699
   C       21.74259        -5.49422        -1.07922
   C       21.81479        -6.35183         0.01417
   C       22.71440        -4.36444        -1.20514
   C       20.66044        -4.76708        -3.22831
   C       19.15735        -8.78556        -0.50560
   C       18.45781        -9.57420        -1.38192
   C       17.98385       -10.85884        -1.04662
   N       17.63166       -11.92796        -0.81951
   C       18.23891        -9.23760        -2.73190
   N       18.02918        -8.99878        -3.83534
   H       -4.03216        -2.90402        -0.17536
   H       -5.91445        -1.70664        -0.70159
   H       -7.26525        -1.90434         0.41988
   H       -7.31581        -2.68584        -1.15406
   H       -8.59086        -3.67104         1.36877
   H       -8.71679        -5.43044         1.25569
   H       -8.65808        -4.44276        -0.20930
   H       -6.74234        -6.58517         1.74335
   H       -1.77279        -8.36006         2.02125
   H       -0.47703        -6.05370        -0.81897
   H        2.31161        -7.81817        -3.71785
   H        3.33751        -6.48729        -4.22378
   H        1.61815        -6.23079        -4.00545
   H        3.07521        -4.17608        -0.45172
   H        2.30215        -3.82640        -1.98692
   H        4.03353        -4.09809        -1.92434
   H        6.10624        -7.15515        -1.71225
   H       10.87858       -11.85356         2.70829
   H       13.99746       -11.00490         5.52651
   H       14.85324       -12.50705         5.83111
   H       13.11035       -12.51385         5.65115
   H       14.46192       -14.30410         1.86006
   H       13.37380       -14.69620         3.18222
   H       15.10712       -14.68845         3.44590
   H       17.62013       -11.80174         3.38488
   H       19.48418       -10.11383         2.67686
   H       19.09636        -6.88150        -2.70299
   H       22.56705        -6.21375         0.77647
   H       23.29275        -4.45704        -2.12395
   H       23.40077        -4.35151        -0.36290
   H       22.18982        -3.41009        -1.24180
   H       19.85558        -5.06858        -3.89286
   H       21.59355        -4.76501        -3.79066
   H       20.47441        -3.74609        -2.89561
*
