# ORCA input file
# SCF done       -205.352747852854          0.000609143603
! CAM-B3LYP def2-SVP def2/J RIJCOSX Grid4 TightSCF
%maxcore 5000
%tddft
    Mode sTDDFT
    Ethresh 5.0
    maxcore 5000
end

%pal
  nprocs 6
  end
* xyz 0 1
   C       -2.73360        -2.06519         0.43378
   C       -1.40490        -1.87366         0.72184
   C       -0.42082        -2.87831         0.61811
   N        0.42886        -3.64826         0.55780
   C       -0.81890        -0.66505         1.14974
   N       -0.25959         0.27670         1.49749
   C       -3.31785        -3.32032        -0.03305
   C       -4.70132        -3.11942        -0.26045
   C       -5.53542        -4.11512        -0.70507
   C       -4.97653        -5.37641        -0.93766
   C       -3.59397        -5.56979        -0.70907
   C       -2.75088        -4.56013        -0.25925
   S       -3.11111        -7.20196        -1.05902
   C       -4.75102        -7.59634        -1.50110
   C       -5.61715        -6.56108        -1.39317
  Br       -5.16525        -9.33729        -2.06284
   C       -5.04241        -1.72131         0.05718
   O       -6.14624        -1.21216        -0.03946
   C       -3.80142        -1.08970         0.50982
   C       -3.68131         0.20212         0.96624
   C       -4.63350         1.21935         1.07788
   C       -4.30800         2.48022         1.61049
   C       -5.37502         3.34248         1.63132
   C       -6.53988         2.75494         1.10115
   S       -6.32377         1.13644         0.59557
   C       -7.57939         3.70458         1.16285
   C       -7.10230         4.88787         1.73317
   C       -5.63728         4.76259         2.07805
   C       -5.40014         4.92870         3.58137
   C       -4.79487         5.76419         1.28301
   C       -8.07409         5.86911         1.84105
   C       -9.30587         5.45817         1.34432
   S       -9.23884         3.80328         0.74649
   C      -10.53627         6.17008         1.28976
   C      -11.70463         5.56000         0.94335
   C      -12.95575         6.21537         0.92337
   C      -13.07338         7.56359         1.07519
   C      -11.80565         8.38556         1.15891
   C      -10.59209         7.62579         1.73449
   N       -9.35179         8.30167         1.42541
   C       -9.26854         8.93651         0.34221
   C      -10.41887         9.11509        -0.56221
   N      -11.59511         8.88376        -0.18563
   F      -10.19039         9.54694        -1.79570
   F       -8.12206         9.52990         0.02900
   C      -14.30988         8.25956         1.01372
   C      -15.57605         7.73558         0.76915
   C      -16.56480         8.70298         0.77870
   C      -16.06889         9.98495         1.03670
   S      -14.36967         9.99590         1.25681
   C      -17.13741        10.90383         1.02438
   C      -18.32739        10.21142         0.75337
   C      -18.06001         8.73699         0.56890
   C      -18.42904         8.29800        -0.85173
   C      -18.79197         7.88845         1.61179
   C      -19.42265        11.04376         0.66325
   C      -19.09625        12.38418         0.87348
   S      -17.38308        12.58186         1.22018
   C      -19.92389        13.51851         0.89040
   C      -21.18488        13.68614         0.38520
   C      -21.97622        12.94202        -0.56367
   C      -21.51167        12.15108        -1.58681
   C      -22.34251        11.49868        -2.51848
   N      -22.96840        10.91549        -3.28483
   C      -20.14892        11.95558        -1.88150
   N      -19.05682        11.78673        -2.19410
   C      -23.36042        13.38999        -0.42477
   C      -23.38683        14.52504         0.42339
   C      -22.01800        14.79929         0.90716
   O      -21.65130        15.71063         1.61463
   C      -24.54483        15.20525         0.70969
   C      -25.73459        14.73747         0.14050
   C      -25.69933        13.59490        -0.69320
   C      -24.52630        12.91077        -0.98944
   S      -27.28138        13.18426        -1.28274
   C      -27.95904        14.53833        -0.41782
   C      -27.04985        15.25994         0.27933
  Br      -29.80279        14.86875        -0.51570
   H       -6.58525        -3.92805        -0.86781
   H       -1.70480        -4.76069        -0.09994
   H       -6.66456        -6.62762        -1.62448
   H       -2.69918         0.50438         1.30902
   H       -3.31453         2.70553         1.95598
   H       -6.00228         4.21640         4.14090
   H       -5.66999         5.93483         3.89176
   H       -4.35223         4.75811         3.81401
   H       -4.96046         5.63553         0.21584
   H       -3.73921         5.61214         1.49246
   H       -5.06617         6.78040         1.55730
   H       -7.91964         6.84578         2.25847
   H      -11.68635         4.50977         0.69079
   H      -13.83352         5.60741         0.77537
   H      -11.98830         9.27156         1.78455
   H      -10.66056         7.62041         2.83173
   H      -15.75033         6.69217         0.58455
   H      -17.94516         8.94173        -1.58217
   H      -19.50457         8.36434        -0.99515
   H      -18.11392         7.27159        -1.02099
   H      -18.52134         8.20481         2.61677
   H      -18.52645         6.84119         1.49215
   H      -19.86712         7.99265         1.49031
   H      -20.43216        10.71341         0.49600
   H      -19.54453        14.37710         1.43705
   H      -24.53452        16.07289         1.35045
   H      -24.54970        12.04281        -1.62743
   H      -27.29420        16.12553         0.86756
*
