# ORCA input file
# SCF done       -198.764273702788          0.000834268941
! CAM-B3LYP def2-SVP def2/J RIJCOSX Grid4 TightSCF
%maxcore 5000
%tddft
    Mode sTDDFT
    Ethresh 5.0
    maxcore 5000
end

%pal
  nprocs 6
  end
* xyz 0 1
   C        0.51495         1.52281        -3.51628
   C        1.11149         1.65632        -4.73853
   F        1.66189         2.82416        -5.09522
   C        1.15698         0.57140        -5.63732
   F        1.75032         0.73078        -6.82795
   C        0.60397        -0.63240        -5.30133
   C       -0.01750        -0.80174        -4.04874
   C       -0.06394         0.29425        -3.13883
   C       -0.68151         0.14784        -1.87570
   C       -1.23319        -1.05870        -1.53270
   C       -1.17601        -2.14778        -2.44400
   C       -0.59122        -2.03629        -3.67247
   C       -1.81448        -3.33445        -1.84054
   O       -1.96117        -4.40806        -2.38493
   C       -2.19262        -2.92820        -0.46585
   C       -1.92369        -1.50535        -0.32689
   C       -2.31105        -0.68988         0.70428
   C       -3.07482        -1.07889         1.82599
   N       -3.71094        -1.30138         2.75602
   C       -2.03145         0.69248         0.76059
   N       -1.83242         1.81755         0.86881
   C       -2.59030        -3.72292         0.57647
   C       -2.92770        -5.08869         0.63422
   C       -3.14004        -6.04717        -0.34824
   C       -3.49455        -7.27492         0.19079
   C       -3.56084        -7.28837         1.59919
   S       -3.19021        -5.74308         2.25730
   C       -3.90423        -8.52164         2.13400
   C       -4.11566        -9.47189         1.14443
   S       -3.89080        -8.82680        -0.46814
   C       -4.47011       -10.83576         1.34740
   C       -4.71966       -11.70744         0.26493
   C       -5.07802       -13.08279         0.44706
   N       -5.30004       -13.85440        -0.63604
   C       -5.19311       -13.34807        -1.82001
   C       -4.84332       -11.98150        -2.00078
   N       -4.61880       -11.21387        -0.98600
   F       -4.73669       -11.45978        -3.21600
   F       -5.41395       -14.14044        -2.86145
   C       -5.20424       -13.67545         1.72262
   C       -4.94931       -12.81154         2.81410
   C       -4.59478       -11.42019         2.63047
   N       -4.40644       -10.80809         3.80141
   S       -4.64598       -11.84893         4.99425
   N       -4.99937       -13.13448         4.10794
   C       -5.56947       -15.04167         1.87905
   C       -5.68391       -15.73376         3.07628
   C       -6.07541       -17.04992         2.87542
   C       -6.27588       -17.38256         1.52236
   S       -5.94461       -16.03778         0.48710
   C       -6.71019       -18.68606         1.32691
   C       -6.83853       -19.37933         2.52209
   S       -6.38454       -18.39523         3.90513
   C       -7.20831       -20.72488         2.73916
   C       -7.89765       -21.57048         1.92221
   C       -7.79286       -23.03941         2.14963
   O       -7.32842       -23.58882         3.12068
   C       -8.32262       -23.66072         0.91879
   C       -8.34687       -24.97868         0.56401
   C       -8.88493       -25.34244        -0.69096
   C       -9.38291       -24.32782        -1.55941
   C       -9.91235       -24.69641        -2.81243
   C       -9.94944       -26.01084        -3.18458
   C       -9.45780       -27.01374        -2.32457
   C       -8.93646       -26.68811        -1.10380
   F       -9.50525       -28.29384        -2.71613
   F      -10.45470       -26.35969        -4.37445
   C       -9.35038       -22.97151        -1.16218
   C       -8.83490       -22.64405         0.06309
   C       -8.71038       -21.35746         0.74489
   C       -9.44867       -20.23987         0.45321
   C       -9.51372       -19.10467         1.28603
   N       -9.63139       -18.17674         1.95111
   C      -10.29787       -20.13188        -0.66702
   N      -10.98564       -19.98831        -1.57438
   H        0.48777         2.36377        -2.84100
   H        0.64694        -1.45317        -6.00009
   H       -0.69467         0.99445        -1.20875
   H       -0.56497        -2.87978        -4.34555
   H       -2.63862        -3.23997         1.54613
   H       -3.03018        -5.84306        -1.39700
   H       -4.00221        -8.74087         3.18001
   H       -5.49056       -15.27982         4.02941
   H       -6.88493       -19.12699         0.36240
   H       -6.84165       -21.17626         3.65642
   H       -7.96137       -25.73421         1.23149
   H      -10.29605       -23.94131        -3.48063
   H       -8.56445       -27.46791        -0.45782
   H       -9.72626       -22.22334        -1.84175
*
