# ORCA input file
# SCF done       -216.263853440248          0.000781008105
! CAM-B3LYP def2-SVP def2/J RIJCOSX Grid4 TightSCF
%maxcore 5000
%tddft
    Mode sTDDFT
    Ethresh 5.0
    maxcore 5000
end

%pal
  nprocs 6
  end
* xyz 0 1
   C       -7.04525         1.73196        -3.94367
   C       -7.12959         2.01873        -5.27728
   F       -7.01303         3.28369        -5.70298
   C       -7.33890         0.99215        -6.21973
   F       -7.41853         1.30228        -7.52113
   C       -7.45937        -0.30793        -5.81548
   C       -7.37543        -0.63540        -4.44845
   C       -7.16591         0.40163        -3.49410
   C       -7.07849         0.09745        -2.11588
   C       -7.19370        -1.20422        -1.70468
   C       -7.39812        -2.23236        -2.66623
   C       -7.49090        -1.97069        -4.00225
   C       -7.47145        -3.53305        -1.97554
   O       -7.65881        -4.61480        -2.50103
   C       -7.27003        -3.24891        -0.54837
   C       -7.13943        -1.81384        -0.37685
   C       -7.00691        -1.12270         0.79971
   C       -6.97814        -1.68510         2.09324
   N       -6.95536        -2.05437         3.18070
   C       -6.89135         0.28131         0.88100
   N       -6.79183         1.41682         1.01748
   C       -7.17100        -4.18607         0.44787
   C       -7.24914        -5.58668         0.39189
   C       -7.04093        -6.38763         1.51443
   C       -7.12088        -7.75255         1.27256
   C       -6.89592        -8.76949         2.30608
   C       -7.70272        -8.78086         3.45015
   C       -7.49978        -9.75159         4.42471
   C       -6.49845       -10.68850         4.25418
   C       -5.68113       -10.67768         3.13893
   C       -5.87164        -9.71252         2.15814
   O       -5.10482        -9.58062         1.04062
   C       -4.13494       -10.56394         0.77630
   O       -8.66673        -7.82014         3.50102
   C       -9.53694        -7.79796         4.60730
   C       -7.43691        -8.01745        -0.06267
   S       -7.58009        -6.57578        -1.00351
   C       -7.66294        -9.29595        -0.67152
   C       -8.01115        -9.43166        -2.03281
   N       -8.01381       -10.59456        -2.63356
   C       -7.74840       -11.68761        -1.90490
   C       -7.62605       -11.56718        -0.50883
   N       -7.55596       -10.40002         0.07622
   C       -7.62858       -12.94463        -2.58566
   C       -8.08295       -13.26719        -3.84553
   C       -7.79077       -14.57879        -4.22449
   C       -8.15491       -15.14437        -5.52913
   C       -9.50817       -15.23241        -5.88346
   C       -9.86144       -15.78454        -7.11010
   C       -8.87359       -16.23167        -7.96721
   C       -7.53383       -16.13338        -7.64055
   C       -7.16440       -15.58054        -6.41992
   O       -5.87960       -15.39564        -6.00895
   C       -4.83683       -15.93416        -6.78861
   O      -10.38656       -14.77801        -4.95349
   C      -11.76578       -14.90534        -5.20558
   C       -7.11681       -15.29473        -3.22804
   S       -6.83367       -14.28201        -1.83578
   C       -6.61802       -16.60102        -3.36295
   C       -5.88390       -17.36900        -2.50336
   C       -4.96816       -18.38514        -3.07815
   O       -4.98618       -18.83663        -4.20163
   C       -3.97603       -18.65072        -2.01242
   C       -2.83449       -19.39609        -2.06736
   C       -2.00184       -19.46305        -0.92691
   C       -2.37203       -18.75522         0.25315
   C       -1.52931       -18.81565         1.38089
   C       -0.37396       -19.54439         1.33987
   C       -0.00976       -20.24542         0.17342
   C       -0.80656       -20.20781        -0.93638
   F        1.13052       -20.95049         0.15998
   F        0.42739       -19.59710         2.41299
   C       -3.56915       -18.00307         0.28572
   C       -4.35837       -17.95360        -0.83058
   C       -5.63460       -17.28972        -1.08481
   C       -6.54397       -16.92242        -0.12653
   C       -7.88749       -16.62022        -0.43174
   N       -9.00176       -16.43782        -0.63837
   C       -6.26525       -16.91303         1.25298
   N       -6.06979       -16.86488         2.38361
   H       -6.88520         2.52981        -3.23532
   H       -7.61878        -1.08244        -6.54929
   H       -6.91867         0.90631        -1.42184
   H       -7.64701        -2.77195        -4.70836
   H       -6.98088        -3.81694         1.44872
   H       -6.81939        -5.97161         2.48131
   H       -8.11445        -9.78883         5.30882
   H       -6.34858       -11.44424         5.01032
   H       -4.90712       -11.42123         3.04538
   H       -4.58420       -11.55944         0.70035
   H       -3.35107       -10.57399         1.54055
   H       -3.69516       -10.29372        -0.18300
   H      -10.21293        -6.96272         4.43045
   H       -8.99478        -7.63056         5.54334
   H      -10.11688        -8.72312         4.68161
   H       -8.26374        -8.57292        -2.64004
   H       -7.58578       -12.43783         0.13329
   H       -8.60289       -12.55964        -4.46400
   H      -10.89495       -15.87187        -7.40132
   H       -9.15416       -16.66423        -8.91553
   H       -6.79067       -16.48500        -8.33641
   H       -3.92090       -15.70183        -6.24773
   H       -4.79576       -15.47557        -7.78115
   H       -4.93155       -17.01980        -6.88448
   H      -12.05318       -15.95169        -5.34633
   H      -12.07111       -14.32097        -6.07951
   H      -12.26057       -14.51304        -4.31869
   H       -6.70843       -17.01859        -4.35955
   H       -2.56582       -19.92523        -2.96894
   H       -1.79538       -18.28773         2.28328
   H       -0.51332       -20.74998        -1.82170
   H       -3.82657       -17.47183         1.18839
*
