# ORCA input file
# SCF done       -216.183779182654          0.000534945798
! CAM-B3LYP def2-SVP def2/J RIJCOSX Grid4 TightSCF
%maxcore 5000
%tddft
    Mode sTDDFT
    Ethresh 5.0
    maxcore 5000
end

%pal
  nprocs 6
  end
* xyz 0 1
   C       -2.22173         2.31451         5.21291
   C       -2.11741         3.46825         4.48809
   F       -1.84520         4.62776         5.10251
   C       -2.29423         3.45540         3.09025
   F       -2.18721         4.60247         2.40451
   C       -2.57288         2.28833         2.43601
   C       -2.68744         1.08289         3.15513
   C       -2.50846         1.09429         4.56847
   C       -2.61749        -0.10335         5.31188
   C       -2.89960        -1.27587         4.66193
   C       -3.08458        -1.27543         3.25347
   C       -2.98076        -0.13754         2.50722
   C       -3.39930        -2.64401         2.79632
   O       -3.58843        -2.96696         1.63981
   C       -3.43790        -3.47698         4.01577
   C       -3.06658        -2.64406         5.14638
   C       -2.84683        -3.04027         6.44173
   C       -2.91641        -4.35718         6.94341
   N       -2.92729        -5.39230         7.44236
   C       -2.47723        -2.16188         7.48229
   N       -2.17706        -1.50808         8.37723
   C       -3.81822        -4.79169         4.14695
   C       -4.18288        -5.76296         3.20513
   C       -4.23738        -5.76437         1.80980
   C       -4.62910        -6.98251         1.29934
   C       -4.88447        -7.94383         2.29336
   S       -4.64241        -7.33967         3.86834
   C       -5.24469        -9.15890         1.67556
   C       -5.21898        -8.98594         0.28774
   C       -4.84501        -7.56885        -0.07605
   C       -3.56499        -7.51976        -0.91399
   C       -5.99269        -6.85969        -0.80211
   C       -5.52033       -10.14882        -0.40081
   C       -5.78134       -11.21422         0.45338
   S       -5.66904       -10.75564         2.13878
   C       -6.07203       -12.57313         0.11949
   C       -6.02146       -13.11137        -1.16206
   F       -5.71814       -12.33474        -2.21671
   C       -6.24734       -14.46306        -1.44015
   F       -6.13326       -14.82864        -2.72987
   C       -6.56366       -15.42213        -0.48185
   C       -6.66395       -14.90559         0.84248
   C       -6.41178       -13.51820         1.12625
   N       -6.53542       -13.24410         2.42023
   S       -6.92979       -14.58491         3.21098
   N       -6.96127       -15.58141         1.95001
   C       -6.73919       -16.80865        -0.77938
   C       -7.14488       -17.80252         0.10383
   C       -7.16579       -19.05422        -0.48639
   C       -6.76874       -19.02472        -1.82782
   S       -6.39116       -17.44921        -2.37381
   C       -6.78513       -20.33845        -2.33798
   C       -7.19289       -21.21930        -1.32701
   C       -7.49663       -20.46347        -0.05421
   C       -8.97624       -20.59162         0.32128
   C       -6.60168       -20.92042         1.10057
   C       -7.18883       -22.53704        -1.73853
   C       -6.81036       -22.68434        -3.07306
   S       -6.41805       -21.13301        -3.80433
   C       -6.62156       -23.91236        -3.73326
   C       -6.40953       -24.17106        -5.05758
   C       -5.70889       -25.41997        -5.45164
   O       -5.49852       -26.38778        -4.75643
   C       -5.26738       -25.18934        -6.84432
   C       -4.47013       -25.96699        -7.63288
   C       -4.14817       -25.52156        -8.93509
   C       -4.65834       -24.27258        -9.39425
   C       -4.32568       -23.83137       -10.69064
   C       -3.52681       -24.59499       -11.49461
   C       -3.02400       -25.83031       -11.04018
   C       -3.32763       -26.28539        -9.78774
   F       -2.24102       -26.55788       -11.84926
   F       -3.21242       -24.17396       -12.72728
   C       -5.48998       -23.49247        -8.55795
   C       -5.79327       -23.94806        -7.30390
   C       -6.63542       -23.38827        -6.24968
   C       -7.65367       -22.49020        -6.44433
   C       -8.63081       -22.21968        -5.46504
   N       -9.46505       -22.02041        -4.70182
   C       -7.89078       -21.83025        -7.66561
   N       -8.10962       -21.26067        -8.63798
   H       -2.08247         2.34135         6.28236
   H       -2.70563         2.29532         1.36549
   H       -2.47900        -0.05773         6.37953
   H       -3.12338        -0.16822         1.43768
   H       -3.85659        -5.16366         5.16410
   H       -3.99161        -4.89185         1.23306
   H       -2.75284        -8.02514        -0.39647
   H       -3.27746        -6.48669        -1.09040
   H       -3.72715        -8.00928        -1.87080
   H       -6.90137        -6.90024        -0.20572
   H       -6.18130        -7.33926        -1.75910
   H       -5.73411        -5.81814        -0.97353
   H       -5.55062       -10.22768        -1.47069
   H       -7.39897       -17.58289         1.12345
   H       -9.60507       -20.28004        -0.50926
   H       -9.19649       -19.96619         1.18261
   H       -9.21030       -21.62450         0.56574
   H       -5.55307       -20.83420         0.82500
   H       -6.81316       -21.95723         1.34911
   H       -6.78366       -20.30435         1.97728
   H       -7.46081       -23.38061        -1.13005
   H       -6.52728       -24.77624        -3.08113
   H       -4.08863       -26.90906        -7.26953
   H       -4.70540       -22.88963       -11.05496
   H       -2.93437       -27.23322        -9.45501
   H       -5.85773       -22.54735        -8.92489
*
