# ORCA input file
# SCF done       -121.223435250940          0.000622100904
! CAM-B3LYP def2-SVP def2/J RIJCOSX Grid4 TightSCF
%maxcore 5000
%tddft
    Mode sTDDFT
    Ethresh 5.0
    maxcore 5000
end

%pal
  nprocs 6
  end
* xyz 0 1
   N        0.11745         1.15894        -2.00915
   C       -0.24828         1.06702        -0.66468
   O       -0.76212         1.94923        -0.03271
   C        0.13130        -0.29864        -0.24929
   C        0.68011        -0.93694        -1.30207
   C        0.68327         0.00120        -2.47656
   O        1.09104        -0.21107        -3.58741
   C        1.19965        -2.25406        -1.42215
   S        1.86363        -2.85289        -2.93064
   C        2.14602        -4.34289        -2.05013
   N        1.75336        -4.27603        -0.79911
   N        1.23785        -3.13681        -0.45888
   C        2.73626        -5.48502        -2.65306
   C        2.92903        -6.63729        -1.96345
   C        3.51025        -7.79295        -2.54384
   N        3.71946        -8.96856        -1.85933
   C        3.45081        -9.21166        -0.46235
   C        4.52211        -8.60120         0.43760
   C        4.29918        -9.95600        -2.67145
   O        4.57674       -11.07250        -2.27768
   C        4.44217        -9.32015        -3.96240
   C        3.95200        -7.99307        -3.84912
   C        4.09325        -7.35633        -5.13928
   O        3.81756        -6.24119        -5.53455
   N        4.65761        -8.35122        -5.95780
   C        5.00647        -8.07447        -7.33034
   C        6.49970        -7.80016        -7.49274
   C        4.87388        -9.52253        -5.27049
   C        5.42474       -10.69229        -5.86429
   C        5.63998       -11.82589        -5.16049
   C        6.19757       -13.04175        -5.69043
   C        6.55633       -14.08996        -4.82593
   N        7.09489       -15.21204        -5.24892
   C        7.27491       -15.33125        -6.55610
   N        6.94933       -14.43488        -7.47549
   C        6.42317       -13.30699        -7.04949
   N        7.85896       -16.51368        -7.00920
   C        7.65532       -17.77426        -6.42796
   O        6.92632       -18.02315        -5.51371
   C        8.49179       -18.71062        -7.23193
   C        9.10320       -18.03422        -8.19893
   C        8.73748       -16.59269        -8.09940
   O        9.12663       -15.67651        -8.76278
   H       -0.02190         1.98635        -2.56947
   H       -0.02300        -0.67972         0.74161
   H        3.02654        -5.40253        -3.69097
   H        2.62060        -6.67343        -0.92893
   H        3.44591       -10.29868        -0.34166
   H        2.46143        -8.82275        -0.20747
   H        5.49472        -9.02329         0.19636
   H        4.29624        -8.82145         1.47708
   H        4.56987        -7.52207         0.31093
   H        4.43828        -7.18320        -7.61128
   H        4.68991        -8.90669        -7.96529
   H        6.78541        -6.93983        -6.89252
   H        6.72331        -7.58627        -8.53418
   H        7.09274        -8.65513        -7.17500
   H        5.67428       -10.64246        -6.91394
   H        5.39800       -11.84497        -4.10557
   H        6.41278       -14.00434        -3.75665
   H        6.15506       -12.60531        -7.82778
   H        8.53139       -19.76063        -7.00846
   H        9.77525       -18.39166        -8.95699
*
