# ORCA input file
# SCF done       -190.128528988293          0.000345892471
! CAM-B3LYP def2-SVP def2/J RIJCOSX Grid4 TightSCF
%maxcore 5000
%tddft
    Mode sTDDFT
    Ethresh 5.0
    maxcore 5000
end

%pal
  nprocs 6
  end
* xyz 0 1
   C        3.41481         2.11202        -4.26631
   C        2.91513         3.10052        -5.05917
   S        2.69092         2.53820        -6.67309
   C        3.26932         0.96118        -6.28658
   C        3.61645         0.88616        -4.97638
   C        4.15183        -0.13280        -4.06703
   O        4.40633        -1.28490        -4.34134
   C        4.31493         0.56481        -2.75741
   C        3.80659         1.92785        -2.88459
   C        3.66765         2.88574        -1.91471
   C        3.14977         4.16216        -2.22343
   N        2.73538         5.20656        -2.45503
   C        3.97587         2.75504        -0.54618
   N        4.19268         2.72099         0.58135
   C        4.91038         0.10315        -1.61804
   C        5.46820        -1.15267        -1.28865
   S        6.30979        -1.25116         0.24587
   C        6.71832        -2.91437        -0.00460
   C        6.17823        -3.36872        -1.21710
   C        5.48742        -2.37986        -1.92580
   C        6.22831        -4.69718        -1.68106
   N        6.20048        -5.77068        -2.08296
   C        7.51867        -3.57800         0.95818
   C        8.13560        -4.77205         0.75384
   C        9.01022        -5.47749         1.61608
   N        9.28460        -5.29853         2.95716
   C        8.61761        -4.44329         3.91175
   C        7.16650        -4.85490         4.13907
   C       10.26737        -6.19747         3.40671
   O       10.67221        -6.23222         4.55580
   C       10.62537        -6.97013         2.24121
   C        9.82822        -6.51508         1.17013
   C       10.19476        -7.25895        -0.01910
   O        9.81061        -7.20946        -1.16397
   N       11.19305        -8.15008         0.43455
   C       11.85031        -9.05867        -0.47374
   C       13.20642        -8.52600        -0.92952
   C       11.47134        -7.97948         1.76657
   C       12.45229        -8.70702         2.47665
   C       12.69900        -8.47235         3.79476
   C       13.68709        -9.14119         4.54811
   S       14.73344       -10.33947         3.85766
   C       15.55801       -10.55311         5.37502
   C       15.02468        -9.70018         6.35908
   C       13.97123        -8.92139         5.89963
   C       13.23340        -7.94002         6.75729
   C       13.50888        -8.21873         8.23758
   N       12.95340        -7.07237         9.01511
   O       13.72772        -6.20775         9.34163
   O       11.76996        -7.08526         9.21437
   C       15.00845        -8.35416         8.45269
   N       15.33860        -8.46286         9.90598
   O       14.46171        -8.85185        10.63556
   O       16.46433        -8.19028        10.21844
   C       15.51775        -9.63015         7.77350
   C       16.60208       -11.45767         5.62622
   C       17.24523       -12.33786         4.79600
   C       16.98960       -12.52626         3.35303
   O       16.15170       -11.96075         2.67527
   C       17.95892       -13.53223         2.91298
   C       18.29385       -14.16011         1.75667
   S       19.58990       -15.26593         2.01725
   C       19.68258       -14.88221         3.69585
   C       18.75458       -13.94426         4.03095
   C       18.32226       -13.22397         5.21223
   C       18.85682       -13.39549         6.46307
   C       19.90899       -14.30868         6.68639
   N       20.76514       -15.04699         6.88089
   C       18.44774       -12.72943         7.63392
   N       18.14470       -12.21467         8.61546
   H        2.66662         4.11387        -4.81543
   H        3.31546         0.20181        -7.04117
   H        5.00515         0.82353        -0.81332
   H        5.01788        -2.55386        -2.87729
   H        7.67022        -3.02467         1.87270
   H        8.02800        -5.25389        -0.20978
   H        8.69129        -3.39867         3.59792
   H        9.18036        -4.55703         4.84356
   H        6.59041        -4.80119         3.21832
   H        6.71224        -4.19795         4.87542
   H        7.12466        -5.87500         4.51288
   H       11.18602        -9.15451        -1.33710
   H       11.95675       -10.03693         0.00258
   H       13.07924        -7.57057        -1.43247
   H       13.65985        -9.22664        -1.62473
   H       13.87747        -8.38843        -0.08459
   H       13.02309        -9.46040         1.95243
   H       12.11837        -7.71689         4.30671
   H       12.16023        -7.98655         6.56289
   H       13.56362        -6.92546         6.50779
   H       12.97579        -9.11501         8.56917
   H       15.54310        -7.47783         8.07312
   H       15.15844       -10.50523         8.32737
   H       16.60912        -9.64316         7.81310
   H       16.94321       -11.44771         6.65238
   H       17.86873       -14.04667         0.77962
   H       20.41146       -15.37304         4.30907
*
