# ORCA input file
# SCF done       -213.932809328264          0.000678815169
! CAM-B3LYP def2-SVP def2/J RIJCOSX Grid4 TightSCF
%maxcore 5000
%tddft
    Mode sTDDFT
    Ethresh 5.0
    maxcore 5000
end

%pal
  nprocs 6
  end
* xyz 0 1
   C       -0.90690         1.36052        -4.40832
   C        0.39728         1.06257        -4.70342
   C        0.79053         0.21296        -5.75927
   N        1.16757        -0.46942        -6.60113
   C        1.51598         1.60836        -4.03877
   N        2.45583         2.05538        -3.55289
   C       -2.07557         0.92089        -5.16063
   C       -3.22176         1.60214        -4.65577
   C       -4.46726         1.41048        -5.18146
   C       -4.62866         0.50466        -6.25314
   C       -3.49029        -0.18941        -6.75702
   C       -2.21184         0.03337        -6.19475
   C       -3.66504        -1.09400        -7.82368
   C       -4.90287        -1.30240        -8.36936
   C       -6.02214        -0.61740        -7.87363
   C       -5.88805         0.26699        -6.83764
   C       -2.81648         2.47675        -3.54964
   O       -3.52904         3.24252        -2.92433
   C       -1.37693         2.24151        -3.35052
   C       -0.62981         2.67347        -2.29276
   C       -0.97930         3.52937        -1.22841
   S       -2.45869         4.42428        -1.10101
   C       -1.91888         5.20696         0.34484
   C       -0.64947         4.77521         0.72150
   C       -0.12637         3.82636        -0.15770
   C        1.19524         3.16174         0.06241
   N        1.04812         1.67020         0.07377
   O        2.05066         1.03590        -0.12818
   O       -0.03905         1.21312         0.32192
   C        1.79241         3.52838         1.42875
   C        1.62792         5.01963         1.68824
   C        0.13625         5.32093         1.86692
   N       -0.01122         6.79463         1.96475
   O        0.06577         7.27801         3.06677
   O       -0.15226         7.41598         0.93902
   C       -2.76080         6.11165         1.06152
   N       -3.63034         6.99059         0.47183
   C       -3.78885         7.28639        -0.93247
   C       -4.98677         6.56024        -1.53756
   C       -4.34789         7.74265         1.43022
   O       -5.15188         8.60268         1.14366
   C       -3.87278         7.23921         2.69486
   C       -2.89247         6.24630         2.44345
   C       -2.48799         5.72289         3.72855
   O       -1.71340         4.83203         4.03513
   N       -3.21909         6.45948         4.67199
   C       -2.94462         6.28256         6.07724
   C       -2.07677         7.41562         6.61847
   C       -4.06304         7.36323         4.06586
   C       -5.03816         8.23794         4.61219
   C       -5.39351         8.46705         5.89856
   C       -6.47780         9.32096         6.25343
   S       -6.93441         9.46865         7.92669
   C       -8.25243        10.51770         7.52820
   C       -9.21401        11.03458         8.50493
   O      -10.21030        11.62053         8.16481
   O       -8.93782        10.82847         9.80252
   C       -8.33204        10.72847         6.15754
   C       -7.31972        10.05725         5.45123
   C       -9.33984        11.57206         5.55155
   C      -10.09313        11.20047         4.49654
   C      -11.10274        12.00509         3.81606
   C      -11.24743        13.36021         3.91153
   C      -12.23201        14.09910         3.22016
   N      -13.01187        14.74869         2.68463
   C      -10.40570        14.20873         4.66452
   N       -9.73995        14.96259         5.21692
   C      -11.86655        11.11568         2.95321
   C      -11.29948         9.81004         3.02122
   C      -10.16571         9.80729         3.95753
   O       -9.47063         8.86295         4.25972
   C      -11.79608         8.76842         2.29018
   C      -12.90425         8.98752         1.44321
   C      -13.48590        10.28730         1.37890
   C      -12.95104        11.34612         2.14668
   C      -14.59561        10.49274         0.53337
   C      -15.10458         9.46695        -0.21532
   C      -14.52927         8.18854        -0.15316
   C      -13.45295         7.95387         0.65842
   H       -5.31859         1.94273        -4.78381
   H       -1.37107        -0.51023        -6.59558
   H       -2.80055        -1.61831        -8.20335
   H       -5.02594        -1.99664        -9.18687
   H       -6.99099        -0.79391        -8.31612
   H       -6.74609         0.79720        -6.45112
   H        0.38752         2.30683        -2.25283
   H        1.90898         3.39573        -0.73650
   H        2.84530         3.24643         1.44930
   H        1.26983         2.97542         2.21369
   H        2.02197         5.59145         0.84403
   H        2.17041         5.30602         2.58972
   H       -0.22446         4.90855         2.82326
   H       -2.86682         7.03671        -1.45998
   H       -3.95718         8.36577        -0.99972
   H       -4.85615         5.48180        -1.50183
   H       -5.10324         6.85940        -2.57510
   H       -5.88898         6.82879        -0.99381
   H       -2.39988         5.33697         6.15559
   H       -3.88254         6.18704         6.62961
   H       -1.14239         7.45554         6.06350
   H       -1.85428         7.24319         7.66788
   H       -2.57510         8.37687         6.51596
   H       -5.57772         8.76106         3.83381
   H       -4.89014         7.99102         6.72558
   H       -8.10846        10.35308         9.94719
   H       -7.21046        10.12437         4.38537
   H       -9.49951        12.53076         6.02675
   H      -11.34448         7.78964         2.35637
   H      -13.41557        12.31712         2.07988
   H      -15.03401        11.47873         0.48739
   H      -15.95367         9.63466        -0.86072
   H      -14.94379         7.39100        -0.75149
   H      -13.00572         6.97198         0.71089
*
