# ORCA input file
# SCF done       -198.683126600978          0.000455766954
! CAM-B3LYP def2-SVP def2/J RIJCOSX Grid4 TightSCF
%maxcore 5000
%tddft
    Mode sTDDFT
    Ethresh 5.0
    maxcore 5000
end

%pal
  nprocs 6
  end
* xyz 0 1
   C        3.81156         2.88970        -1.96921
   C        4.25849         2.89731        -0.67298
   C        5.31730         2.09236        -0.20002
   N        6.16451         1.46601         0.25576
   C        3.77833         3.71314         0.37339
   N        3.46522         4.34794         1.27845
   C        4.39047         2.09797        -3.04704
   C        3.76491         2.47393        -4.26850
   C        4.10925         1.90938        -5.46290
   C        5.11418         0.91723        -5.49000
   C        5.74026         0.52777        -4.27056
   C        5.36336         1.13302        -3.04990
   C        6.73904        -0.46651        -4.30778
   C        7.10428        -1.04759        -5.49156
   C        6.48782        -0.66256        -6.69159
   C        5.51389         0.29898        -6.69095
   C        2.74988         3.50671        -4.00860
   O        2.06339         4.05329        -4.84660
   C        2.74442         3.70459        -2.53560
   C        1.86751         4.42592        -1.77629
   C        0.81123         5.29479        -2.12941
   S       -0.11814         5.95584        -0.79672
   C       -1.10851         6.89229        -1.86620
   C       -0.71694         6.68040        -3.19659
   C        0.35190         5.79086        -3.33619
   C       -1.34414         7.30014        -4.29479
   N       -1.83895         7.78291        -5.20875
   C       -2.13807         7.74746        -1.41745
   C       -2.48420         7.87293        -0.10688
   C       -3.48975         8.75528         0.34761
   N       -3.88053         8.86164         1.66426
   C       -3.41526         8.05656         2.76789
   C       -4.03526         6.66168         2.75670
   C       -4.87108         9.83940         1.84255
   O       -5.36982        10.10377         2.91904
   C       -5.08582        10.37889         0.51715
   C       -4.23217         9.68614        -0.37675
   C       -4.43013        10.23529        -1.69904
   O       -3.94041         9.96474        -2.77616
   N       -5.39957        11.23885        -1.51506
   C       -5.83623        12.05721        -2.62024
   C       -5.11208        13.40117        -2.65196
   C       -5.79132        11.34210        -0.20167
   C       -6.73646        12.29525         0.26693
   C       -7.13895        12.34039         1.55722
   C       -8.06557        13.29406         2.11220
   C       -8.63511        13.03399         3.36107
   C       -9.51944        13.92568         3.94083
   N      -10.02038        13.59976         5.25307
   O      -10.01946        12.43164         5.57333
   O      -10.40351        14.50936         5.95950
   C       -9.86871        15.13527         3.31208
   C       -9.27664        15.39035         2.06733
   C       -8.40850        14.50004         1.48117
   C      -10.81316        16.07464         3.87257
   C      -10.68436        17.41272         3.74183
   C      -11.62794        18.31698         4.30028
   C      -11.49474        19.67136         4.28545
   C      -12.40881        20.64075         4.86923
   C      -13.70327        20.41207         5.25150
   C      -14.55337        21.40295         5.78716
   N      -15.29097        22.16482         6.22635
   C      -14.38345        19.18298         5.11455
   N      -15.00727        18.22488         5.01046
   C      -11.72484        21.92731         4.90426
   C      -10.47229        21.79516         4.23857
   C      -10.30485        20.40832         3.77422
   O       -9.38367        19.96880         3.11860
   C       -9.60990        22.84586         4.10943
   C       -9.96281        24.09842         4.65858
   C      -11.21046        24.23684         5.33335
   C      -12.08604        23.13287         5.44590
   C      -11.54898        25.48992         5.88380
   C      -10.69777        26.55556         5.77427
   C       -9.46977        26.41813         5.10968
   C       -9.11047        25.21609         4.56312
   H        3.61963         2.21678        -6.37507
   H        5.85381         0.81124        -2.14524
   H        7.21173        -0.75856        -3.38152
   H        7.87104        -1.80746        -5.50980
   H        6.78833        -1.13177        -7.61641
   H        5.03541         0.59949        -7.61157
   H        1.97864         4.32617        -0.70270
   H        0.77842         5.51313        -4.28339
   H       -2.65511         8.32263        -2.17627
   H       -1.96193         7.27781         0.63096
   H       -3.71901         8.58597         3.67525
   H       -2.32338         7.99753         2.74416
   H       -5.11710         6.73530         2.83488
   H       -3.66417         6.08863         3.60163
   H       -3.78964         6.13174         1.83900
   H       -6.91974        12.19522        -2.56813
   H       -5.59611        11.49400        -3.52646
   H       -5.28382        13.96232        -1.73575
   H       -5.46369        13.98870        -3.49544
   H       -4.04259        13.24121        -2.76273
   H       -7.13906        12.98649        -0.45900
   H       -6.75401        11.60276         2.24914
   H       -8.38278        12.12904         3.89469
   H       -9.53370        16.30358         1.55355
   H       -7.96964        14.74931         0.52773
   H      -11.64652        15.67906         4.43853
   H       -9.82429        17.83633         3.24433
   H      -12.48482        17.87523         4.79323
   H       -8.66672        22.72078         3.59839
   H      -13.02012        23.26750         5.96793
   H      -12.49577        25.59104         6.39367
   H      -10.96583        27.51096         6.19973
   H       -8.80988        27.26935         5.03354
   H       -8.16617        25.10413         4.05061
*
