# ORCA input file
# SCF done       -196.466757521739          0.000391293653
! CAM-B3LYP def2-SVP def2/J RIJCOSX Grid4 TightSCF
%maxcore 5000
%tddft
    Mode sTDDFT
    Ethresh 5.0
    maxcore 5000
end

%pal
  nprocs 6
  end
* xyz 0 1
   C        4.45787         6.08331         0.18563
   C        4.85928         6.50557         1.42678
   C        6.05547         6.08915         2.04736
   N        7.00963         5.77613         2.60330
   C        4.17919         7.46408         2.20670
   N        3.69822         8.27345         2.86476
   C        5.23618         5.25554        -0.72434
   C        4.60546         5.28307        -2.00071
   C        5.12253         4.61744        -3.07443
   C        6.30981         3.86862        -2.91300
   C        6.93771         3.82287        -1.63440
   C        6.38418         4.53114        -0.54306
   C        8.11577         3.06367        -1.48352
   C        8.65131         2.38416        -2.54376
   C        8.03439         2.43270        -3.80273
   C        6.88876         3.15942        -3.98351
   C        3.38105         6.09948        -1.93300
   O        2.64801         6.36573        -2.86215
   C        3.24322         6.48696        -0.50575
   C        2.14489         6.97354         0.14437
   C        0.91894         7.47090        -0.34475
   S       -0.28520         7.88906         0.85849
   C       -1.36259         8.51263        -0.34477
   C       -0.79751         8.37058        -1.62101
   C        0.47257         7.78902        -1.61439
   C       -1.43523         8.80335        -2.79854
   N       -1.92614         9.14973        -3.77460
   C       -2.60242         9.10578        -0.03068
   C       -3.07076         9.21301         1.24336
   C       -4.28185         9.85889         1.57069
   N       -4.77769         9.95820         2.85590
   C       -4.22602         9.34473         4.03903
   C       -4.54023         7.85261         4.10829
   C       -5.97992        10.68851         2.90128
   O       -6.58554        10.92539         3.92841
   C       -6.21646        11.05931         1.52778
   C       -5.16624        10.53953         0.73729
   C       -5.35884        11.02880        -0.61085
   O       -4.70866        10.88500        -1.62478
   N       -6.54102        11.79587        -0.54727
   C       -7.02101        12.48081        -1.72137
   C       -8.04833        11.64392        -2.48131
   C       -7.05217        11.83039         0.72179
   C       -8.17329        12.54119         1.23722
   C       -9.19829        13.15625         0.61274
   C      -10.19779        13.88914         1.35630
   C      -11.52945        13.95075         1.04515
   S      -12.44097        14.81896         2.20521
   C      -11.03022        15.14272         3.13086
   C       -9.91700        14.60414         2.56974
   C       -8.51874        14.83478         3.00651
   O       -7.69649        15.37979         2.32474
   O       -8.30127        14.36457         4.26139
   C       -7.05959        14.04127         4.70566
   C       -5.95617        13.86732         3.95864
   C       -4.76556        13.34001         4.52851
   C       -3.69402        12.92245         3.80024
   C       -2.47610        12.31401         4.31351
   C       -2.16363        12.08387         5.62719
   C       -0.98370        11.44158         6.06040
   N       -0.05874        10.90925         6.48296
   C       -2.95830        12.43220         6.73979
   N       -3.53061        12.68196         7.70361
   C       -1.63308        11.97173         3.17273
   C       -2.30352        12.36012         1.97780
   C       -3.60531        12.95560         2.31569
   O       -4.43484        13.36001         1.52655
   C       -1.75246        12.16909         0.74314
   C       -0.47047        11.58466         0.64602
   C        0.21061        11.19380         1.83575
   C       -0.39428        11.38860         3.09861
   C        1.49399        10.61855         1.72739
   C        2.07935        10.44778         0.50197
   C        1.40706        10.82841        -0.66919
   C        0.15597        11.38026        -0.59930
   H        4.63030         4.65967        -4.03474
   H        6.87907         4.47514         0.41368
   H        8.58852         3.03131        -0.51288
   H        9.55411         1.80555        -2.41796
   H        8.47092         1.89112        -4.62849
   H        6.40902         3.20020        -4.95048
   H        2.19800         6.98290         1.22750
   H        1.05239         7.60644        -2.50134
   H       -3.17679         9.50441        -0.85773
   H       -2.48007         8.80112         2.05157
   H       -4.68868         9.85741         4.88784
   H       -3.14462         9.51126         4.07056
   H       -5.61663         7.70087         4.12073
   H       -4.11803         7.43089         5.01606
   H       -4.12476         7.32794         3.25063
   H       -6.14862        12.64128        -2.36171
   H       -7.42576        13.45114        -1.42611
   H       -7.58038        10.73318        -2.84670
   H       -8.42560        12.20445        -3.33221
   H       -8.88350        11.36637        -1.84113
   H       -8.17469        12.52422         2.32087
   H       -9.35051        13.09224        -0.45323
   H      -12.02550        13.49603         0.21064
   H      -11.09726        15.74161         4.01694
   H       -7.08485        13.82614         5.76654
   H       -5.95950        14.06322         2.89707
   H       -4.75166        13.23429         5.60500
   H       -2.28664        12.46216        -0.14836
   H        0.14824        11.07842         3.97756
   H        2.01029        10.31040         2.62396
   H        3.06467        10.01124         0.43310
   H        1.88198        10.67921        -1.62770
   H       -0.37165        11.66866        -1.49686
*
