# ORCA input file
# SCF done       -161.065940550739          0.000516381220
! CAM-B3LYP def2-SVP def2/J RIJCOSX Grid4 TightSCF
%maxcore 5000
%tddft
    Mode sTDDFT
    Ethresh 5.0
    maxcore 5000
end

%pal
  nprocs 6
  end
* xyz 0 1
   C       -2.70015         0.51300        -5.39703
   N       -2.26694         0.55444        -4.10825
   C       -1.72117        -0.55479        -3.36686
   C       -0.28467        -0.85666        -3.78587
   C       -2.35020         1.85971        -3.57864
   O       -2.02893         2.14225        -2.43801
   C       -2.88539         2.64346        -4.66269
   C       -3.09361         1.76526        -5.77533
   C       -3.62923         2.55045        -6.86872
   O       -3.96504         2.26400        -7.99536
   N       -3.69507         3.85974        -6.34729
   C       -4.25294         4.94117        -7.12103
   C       -5.68629         5.25879        -6.70086
   C       -3.25978         3.92387        -5.04216
   C       -3.20086         5.12864        -4.29224
   C       -2.83110         5.16036        -2.98916
   C       -2.74494         6.34465        -2.21454
   S       -3.00026         7.93629        -2.88593
   C       -2.72025         8.70350        -1.35430
   C       -2.44361         7.74629        -0.37693
   C       -2.45435         6.43011        -0.87090
   C       -2.15275         8.02255         0.97012
   N       -1.90493         8.19821         2.07661
   C       -2.78580        10.12116        -1.27821
   C       -2.73700        10.84999        -0.14020
   C       -2.78005        12.27517        -0.09259
   S       -2.93568        13.06948         1.44470
   C       -2.88744        14.62281         0.69711
   C       -2.93684        15.78399         1.60136
   O       -3.48371        15.74604         2.66886
   O       -2.29584        16.89552         1.18878
   C       -2.77525        14.53087        -0.68471
   C       -2.71109        13.19162        -1.11812
   C       -2.79207        15.63122        -1.62692
   S       -3.85050        17.00268        -1.42429
   C       -3.30850        17.71024        -2.92135
   C       -2.36540        16.88793        -3.53093
   C       -2.09025        15.71343        -2.79955
   C       -1.74583        17.17136        -4.76070
   N       -1.22377        17.34715        -5.76626
   C       -3.79190        18.95494        -3.39183
   C       -4.75140        19.67020        -2.75139
   C       -5.22713        20.92176        -3.21485
   N       -6.24732        21.62316        -2.61076
   C       -7.03849        21.19293        -1.48410
   C       -8.07660        20.14634        -1.88231
   C       -6.51263        22.83879        -3.26564
   O       -7.37726        23.61405        -2.90808
   C       -5.55619        22.87697        -4.34907
   C       -4.78714        21.68157        -4.29162
   C       -3.81468        21.72749        -5.35654
   O       -2.94743        20.95086        -5.70558
   N       -4.05459        22.96138        -5.99135
   C       -3.29315        23.35573        -7.15148
   C       -4.05637        23.09691        -8.44821
   C       -5.09004        23.64794        -5.40490
   C       -5.53832        24.93543        -5.85217
   C       -6.55866        25.58381        -5.28609
   H       -2.70270        -0.40793        -5.95017
   H       -2.35519        -1.43345        -3.51788
   H       -1.74954        -0.26764        -2.31234
   H       -0.23857        -1.11569        -4.84144
   H        0.10267        -1.68866        -3.20468
   H        0.34523         0.01252        -3.61310
   H       -4.24208         4.60252        -8.16090
   H       -3.61599         5.82617        -7.03258
   H       -6.31457         4.38216        -6.83799
   H       -6.07946         6.06701        -7.31124
   H       -5.73006         5.55535        -5.65500
   H       -3.46015         6.05218        -4.79278
   H       -2.58295         4.23965        -2.47657
   H       -2.25545         5.56690        -0.26093
   H       -2.90102        10.62361        -2.22918
   H       -2.67331        10.35167         0.81589
   H       -1.83783        16.78003         0.34568
   H       -2.62870        12.92322        -2.15529
   H       -1.37728        14.97453        -3.12001
   H       -3.35255        19.32683        -4.30942
   H       -5.18003        19.27627        -1.83872
   H       -7.54490        22.08864        -1.11353
   H       -6.38170        20.80998        -0.69762
   H       -8.75383        20.55995        -2.62553
   H       -8.65431        19.85136        -1.01077
   H       -7.60022        19.26298        -2.30230
   H       -2.38439        22.74713        -7.13535
   H       -3.01300        24.40939        -7.06650
   H       -4.28200        22.03727        -8.53872
   H       -3.44945        23.39643        -9.29812
   H       -4.99088        23.65352        -8.46962
   H       -5.00611        25.37589        -6.68398
   H       -7.10268        25.16482        -4.45607
   H       -6.87008        26.55065        -5.64223
*
