# ORCA input file
# SCF done       -134.285066521652          0.000892527735
! CAM-B3LYP def2-SVP def2/J RIJCOSX Grid4 TightSCF
%maxcore 5000
%tddft
    Mode sTDDFT
    Ethresh 5.0
    maxcore 5000
end

%pal
  nprocs 6
  end
* xyz 0 1
   C       -4.68769        -0.82121         3.82032
   N       -4.17962         0.13632         4.64142
   C       -3.70208        -0.06833         5.98486
   C       -2.32727        -0.73245         5.99721
   C       -4.10449         1.38969         3.99091
   O       -3.64695         2.38692         4.51726
   C       -4.64832         1.13229         2.68236
   C       -4.98557        -0.25846         2.61137
   C       -5.47117        -0.53158         1.27441
   O       -5.87059        -1.54245         0.73834
   N       -5.37582         0.70967         0.61624
   C       -5.83843         0.87594        -0.73853
   C       -7.19936         1.56598        -0.79663
   C       -4.90498         1.70658         1.44613
   C       -4.71338         3.05026         1.04062
   C       -4.49034         4.04250         1.94215
   C       -4.21125         5.38434         1.61273
   S       -3.72950         5.84558         0.00676
   C       -3.39032         7.47273         0.46677
   C       -3.70449         7.68374         1.81367
   C       -4.17542         6.49675         2.46311
   C       -4.59133         6.57623         3.81894
   C       -5.20772         5.50353         4.50284
   N       -5.78444         4.71658         5.10630
   C       -4.49132         7.77913         4.48791
   C       -4.03537         8.93516         3.83802
   C       -3.66903         8.90407         2.52131
   C       -2.81716         8.38119        -0.49462
   C       -3.15735         8.28747        -1.84981
   C       -2.60242         9.12949        -2.78364
   C       -1.66680        10.10366        -2.41315
   C       -1.31828        10.18205        -1.05865
   C       -1.87099         9.34236        -0.12003
   C       -1.03208        11.00552        -3.34664
   C       -1.15723        10.99131        -4.68500
   C       -0.48867        11.87374        -5.61427
   C        0.28288        12.97333        -5.22122
   C        0.91378        13.76335        -6.15319
   C        0.81844        13.50041        -7.52591
   C        0.03204        12.41186        -7.91977
   C       -0.60472        11.62563        -6.98814
   C        1.52838        14.35593        -8.45052
   C        1.64969        14.17164        -9.77565
   C        2.37755        15.01639       -10.69775
   C        2.99302        16.21801       -10.32899
   C        3.68333        16.97708       -11.24638
   C        3.79554        16.57643       -12.58052
   C        3.17103        15.38349       -12.95386
   C        2.48102        14.62306       -12.03689
   C        4.52348        17.33860       -13.58372
   C        5.26880        18.41839       -13.37524
   H       -4.80461        -1.83436         4.15828
   H       -4.42494        -0.67816         6.53496
   H       -3.64237         0.92189         6.44459
   H       -2.36730        -1.70836         5.51792
   H       -1.98606        -0.85924         7.02086
   H       -1.61037        -0.11242         5.46454
   H       -5.91889        -0.13294        -1.15333
   H       -5.09564         1.43591        -1.31522
   H       -7.93475         0.98003        -0.25105
   H       -7.52369         1.65801        -1.82959
   H       -7.15022         2.55809        -0.35303
   H       -4.75421         3.28269        -0.01533
   H       -4.50551         3.80184         2.99582
   H       -4.80727         7.83551         5.51909
   H       -4.00662         9.86458         4.38616
   H       -3.38398         9.80924         2.00927
   H       -3.88121         7.54526        -2.15590
   H       -2.90097         9.03380        -3.81586
   H       -0.58203        10.90965        -0.74712
   H       -1.53682         9.39315         0.90487
   H       -0.37971        11.73529        -2.88554
   H       -1.78817        10.24582        -5.15125
   H        0.38306        13.21609        -4.17448
   H        1.50439        14.60617        -5.82132
   H       -0.08444        12.18211        -8.96790
   H       -1.20397        10.78900        -7.32062
   H        2.01319        15.20546        -7.98760
   H        1.18670        13.30757       -10.23438
   H        2.92530        16.56602        -9.30961
   H        4.13953        17.90088       -10.92509
   H        3.23591        15.05251       -13.98126
   H        2.01150        13.70188       -12.35351
   H        4.43412        16.95286       -14.59234
   H        5.40846        18.85179       -12.39984
   H        5.77236        18.91553       -14.18647
*
