# ORCA input file
# SCF done       -194.315581727184          0.000864391855
! CAM-B3LYP def2-SVP def2/J RIJCOSX Grid4 TightSCF
%maxcore 5000
%tddft
    Mode sTDDFT
    Ethresh 5.0
    maxcore 5000
end

%pal
  nprocs 6
  end
* xyz 0 1
   C       -5.63341        -3.82440        -2.04884
   C       -6.18413        -3.97756        -3.29549
   C       -5.94296        -5.08616        -4.13541
   N       -5.79719        -5.95667        -4.86929
   C       -7.03707        -3.06461        -3.95117
   N       -7.71856        -2.37501        -4.56776
   C       -4.68483        -4.74447        -1.43628
   C       -4.24313        -4.18984        -0.20992
   C       -3.32578        -4.81364         0.60130
   C       -2.81986        -6.04774         0.18378
   C       -3.27196        -6.59981        -1.03969
   C       -4.19865        -5.96772        -1.85989
   S       -2.51845        -8.13090        -1.35421
   C       -1.62175        -8.02003         0.12058
   C       -1.87003        -6.89299         0.82301
   C       -4.91126        -2.89933         0.02044
   O       -4.75210        -2.18157         0.98500
   C       -5.82207        -2.70369        -1.13689
   C       -6.75605        -1.72376        -1.32376
   C       -7.03147        -0.54352        -0.60142
   C       -6.39384         0.08818         0.45889
   C       -7.01167         1.28297         0.80365
   C       -8.14039         1.57681         0.00576
   S       -8.42857         0.38578        -1.16913
   C       -8.69179         2.80818         0.43687
   C       -7.91188         3.29722         1.50293
   C       -6.83142         2.35781         1.76679
   C       -5.85651         2.47787         2.71123
   C       -4.82346         1.53083         2.88913
   N       -3.96167         0.79501         3.05906
   C       -5.80158         3.58428         3.58727
   N       -5.75307         4.48072         4.30014
   C       -8.37227         4.51721         1.99106
   C       -9.49328         4.94986         1.30366
   S       -9.99062         3.84546         0.04044
   C      -10.23193         6.13621         1.51813
   N      -11.29698         6.46336         0.84482
   C      -11.78259         7.62842         1.26667
   C      -11.08155         8.25955         2.31205
   S       -9.73308         7.30186         2.77256
   N      -11.56829         9.42102         2.73967
   C      -12.64018         9.74661         2.07668
   S      -13.13597         8.58429         0.81655
   C      -13.37752        10.92684         2.33605
   C      -13.06263        11.88053         3.29105
   C      -13.99832        12.91043         3.31337
   C      -15.02991        12.73515         2.37005
   S      -14.84132        11.30677         1.45573
   C      -15.94057        13.81550         2.48683
   C      -15.47976        14.67464         3.50365
   C      -14.25088        14.13413         4.05849
   C      -13.52183        14.65643         5.08518
   C      -12.33755        14.05402         5.56092
   N      -11.37019        13.57707         5.94879
   C      -13.91845        15.84540         5.73438
   N      -14.25151        16.81427         6.24880
   C      -16.33016        15.74946         3.73052
   C      -17.44301        15.72068         2.90431
   S      -17.40273        14.35202         1.80091
   C      -18.51692        16.63976         2.84019
   C      -18.92426        17.52769         3.78552
   C      -18.62659        17.68781         5.19561
   C      -18.32428        16.69376         6.08961
   C      -18.18925        16.90056         7.47897
   N      -18.07575        17.01095         8.61525
   C      -18.21038        15.33227         5.74844
   N      -18.13411        14.20809         5.52661
   C      -18.98389        19.05413         5.55723
   C      -19.71084        19.63581         4.48543
   C      -19.78336        18.67744         3.37042
   O      -20.36377        18.79374         2.31609
   C      -20.22045        20.91076         4.55030
   C      -19.99157        21.64731         5.71652
   C      -19.24747        21.06349         6.77138
   C      -18.73907        19.77122         6.71174
   S      -19.07612        22.16135         8.10273
   C      -19.98750        23.36482         7.25937
   C      -20.40235        22.97228         6.03492
   H       -3.00941        -4.35889         1.52716
   H       -4.51118        -6.43286        -2.77956
   H       -0.95299        -8.81949         0.37427
   H       -1.40502        -6.65355         1.76207
   H       -7.41561        -1.85323        -2.17398
   H       -5.52833        -0.32985         0.94161
   H       -7.93338         5.07502         2.79858
   H      -12.19519        11.79393         3.91870
   H      -16.14284        16.54137         4.43251
   H      -19.05338        16.69264         1.89774
   H      -20.77824        21.32673         3.72575
   H      -18.16906        19.36969         7.53330
   H      -20.15859        24.30843         7.74005
   H      -20.97919        23.58753         5.36847
*
