# ORCA input file
# SCF done       -174.279848241327          0.000824385187
! CAM-B3LYP def2-SVP def2/J RIJCOSX Grid4 TightSCF
%maxcore 5000
%tddft
    Mode sTDDFT
    Ethresh 5.0
    maxcore 5000
end

%pal
  nprocs 6
  end
* xyz 0 1
   C       -7.34720         2.01591         3.63888
   C       -7.54841         1.80193         4.99370
   C       -7.15230         0.61660         5.59921
   C       -6.53420        -0.38613         4.86831
   C       -6.32236        -0.18300         3.51389
   C       -6.73598         1.01921         2.89263
   C       -6.41551         0.95597         1.47501
   C       -6.53291         1.96865         0.56624
   C       -7.00040         3.26379         0.88174
   N       -7.36993         4.33309         1.07185
   C       -6.17020         1.88316        -0.79649
   N       -5.89327         1.89156        -1.90996
   C       -5.94832        -0.40759         1.21583
   C       -5.67356        -1.01981         2.51941
   C       -4.78107        -2.01993         2.77455
   C       -3.96116        -2.62709         1.79898
   N       -3.22999        -3.11811         1.06242
   C       -4.50410        -2.51708         4.06661
   N       -4.24369        -2.96531         5.08989
   C       -5.93128        -1.01063         0.00495
   C       -5.80704        -2.42808        -0.20956
   N       -6.38606        -3.26771         0.63568
   N       -6.28503        -4.55476         0.53958
   C       -5.62580        -5.16665        -0.43700
   C       -5.03475        -4.37143        -1.46023
   C       -5.12392        -2.95045        -1.33871
   N       -4.49400        -2.31950        -2.32493
   S       -3.86031        -3.41702        -3.30924
   N       -4.35327        -4.73964        -2.53890
   C       -5.52257        -6.58823        -0.43963
   S       -4.64065        -7.38034        -1.70405
   C       -5.01673        -8.92748        -1.02059
   C       -5.77483        -8.82072         0.14220
   C       -6.06340        -7.48990         0.47357
   C       -6.85627        -7.11331         1.67801
   C       -7.60594        -8.31771         2.23925
   C       -6.66899        -9.51742         2.35613
   C       -7.29731       -10.66455         3.10604
   O       -8.32906       -10.61585         3.71159
   C       -6.22305        -9.98053         0.96492
   C       -4.54198       -10.11826        -1.64020
   N       -4.98988       -11.29570        -1.21243
   N       -4.54944       -12.42345        -1.66914
   C       -3.64978       -12.53223        -2.63492
   C       -3.15118       -11.34196        -3.23586
   C       -3.59896       -10.09152        -2.70680
   N       -3.04482        -9.05638        -3.32843
   S       -2.06115        -9.61154        -4.47270
   N       -2.29048       -11.18375        -4.23610
   C       -3.22096       -13.81266        -3.11452
   C       -3.52179       -15.04092        -2.62449
   C       -3.32991       -16.27988        -3.38450
   C       -2.42100       -16.49437        -4.38067
   C       -1.44866       -15.56019        -4.80450
   N       -0.62193       -14.86319        -5.18804
   C       -2.29555       -17.71300        -5.08378
   N       -2.14846       -18.67380        -5.69318
   C       -4.28002       -17.24271        -2.85005
   C       -4.87524       -16.70098        -1.68658
   C       -5.83463       -17.41605        -0.98798
   C       -6.19409       -18.67117        -1.45463
   C       -5.60463       -19.20780        -2.59182
   C       -4.64361       -18.50314        -3.30003
   C       -4.28258       -15.39909        -1.42457
   C       -4.25337       -14.75592        -0.22400
   C       -4.98043       -15.17189         0.91178
   N       -5.56106       -15.45336         1.86038
   C       -3.40216       -13.66432         0.06677
   N       -2.64929       -12.86791         0.40933
   H       -7.66790         2.93860         3.18371
   H       -8.02494         2.56946         5.58405
   H       -7.32825         0.47143         6.65400
   H       -6.23888        -1.30617         5.34586
   H       -6.06696        -0.42627        -0.89430
   H       -7.54239        -6.30365         1.42572
   H       -6.17164        -6.70846         2.42940
   H       -8.43575        -8.58072         1.58065
   H       -8.02168        -8.07723         3.21770
   H       -5.77870        -9.22662         2.92903
   H       -6.70102       -11.59709         3.05649
   H       -7.05357       -10.47361         0.45113
   H       -5.42003       -10.71742         1.02832
   H       -2.64938       -13.74805        -4.03112
   H       -6.30366       -17.00589        -0.10837
   H       -6.94483       -19.23769        -0.92534
   H       -5.90044       -20.18740        -2.93465
   H       -4.20052       -18.93042        -4.18472
*
