# ORCA input file
# SCF done       -210.027612368103          0.000437063779
! CAM-B3LYP def2-SVP def2/J RIJCOSX Grid4 TightSCF
%maxcore 5000
%tddft
    Mode sTDDFT
    Ethresh 5.0
    maxcore 5000
end

%pal
  nprocs 6
  end
* xyz 0 1
   C        1.00840         4.39307         2.71875
   C        1.38019         5.42917         3.53739
   C        2.71659         5.72153         3.88367
   N        3.77890         6.01963         4.20085
   C        0.51358         6.33776         4.18106
   N       -0.11246         7.10916         4.75810
   C        1.92549         3.41752         2.14095
   C        1.16926         2.43609         1.45769
   C        1.74371         1.36784         0.81308
   C        3.13804         1.26430         0.84115
   C        3.88845         2.25336         1.52107
   C        3.30543         3.33180         2.17455
   S        5.59461         1.93743         1.42752
   C        5.28061         0.49990         0.49169
   C        3.96711         0.26686         0.25895
  Br        6.71685        -0.55590        -0.09045
   C       -0.26682         2.75988         1.55598
   O       -1.16945         2.11014         1.07226
   C       -0.34134         4.02783         2.31805
   C       -1.43750         4.81809         2.54083
   C       -2.80207         4.62456         2.25848
   C       -3.53496         3.53712         1.79489
   C       -4.88661         3.82675         1.68043
   C       -5.20564         5.15391         2.05682
   S       -3.84427         6.02661         2.56844
   C       -6.59254         5.35823         1.86813
   C       -7.15438         4.16468         1.37656
   C       -6.10807         3.16181         1.25529
   C       -6.26460         1.87370         0.83533
   C       -5.20568         0.94181         0.77255
   N       -4.37580         0.15304         0.72094
   C       -7.52271         1.37078         0.43893
   N       -8.54086         0.95403         0.11422
   C       -8.51970         4.27200         1.13468
   C       -8.99921         5.53681         1.43305
   S       -7.74619         6.60434         2.03433
   C      -10.34761         5.97606         1.24522
   C      -10.80071         7.25796         1.53351
   F       -9.95327         8.14176         2.08997
   C      -12.10770         7.69834         1.27888
   F      -12.41935         8.94085         1.67053
   C      -13.07874         6.89266         0.70265
   C      -12.67319         5.56292         0.46492
   C      -11.34273         5.11593         0.71778
   N      -11.28989         3.82635         0.35812
   N      -12.49059         3.55142        -0.06652
   N      -13.35654         4.52463        -0.03796
   C      -12.82481         2.24206        -0.53381
   C      -14.40111         7.38078         0.36226
   C      -14.58847         8.60272        -0.21903
   C      -15.84438         9.14672        -0.50698
   C      -17.07283         8.49154        -0.04103
   C      -17.10464         7.24100         0.47494
   S      -15.71082         6.27579         0.72643
   C      -18.11431         9.42548        -0.29295
   C      -17.58240        10.57263        -0.88638
   C      -18.57552        11.53482        -1.17217
   C      -19.80785        11.10619        -0.79272
   S      -19.81788         9.52586        -0.08516
   C      -16.16738        10.38922        -1.07115
   C      -15.32075        11.29225        -1.77110
   C      -14.29279        10.92555        -2.57778
   C      -13.55046        11.84670        -3.37017
   C      -13.20706        13.12106        -3.04155
   C      -12.88051        14.13820        -4.07485
   O      -12.66075        13.92513        -5.24795
   C      -12.94098        15.43448        -3.36808
   C      -13.14914        15.21451        -2.00560
   C      -13.15799        13.77832        -1.75475
   C      -12.85710        13.16083        -0.56689
   C      -12.53214        11.79255        -0.52565
   N      -12.19124        10.69585        -0.51330
   C      -12.72761        13.82637         0.66623
   N      -12.63698        14.33188         1.69304
   C      -13.26405        16.28842        -1.11410
   C      -13.16076        17.56347        -1.60565
   C      -12.93065        17.82220        -2.97486
   C      -12.81787        16.73604        -3.89145
   C      -12.58410        17.00120        -5.25634
   C      -12.46321        18.29061        -5.69524
   C      -12.57332        19.36430        -4.79693
   C      -12.80310        19.13676        -3.46799
   H        1.13498         0.63646         0.30502
   H        3.92313         4.05836         2.67477
   H        3.59584        -0.57273        -0.29980
   H       -1.23920         5.78043         2.99841
   H       -3.07552         2.59648         1.54880
   H       -9.15896         3.49677         0.75597
   H      -11.93164         1.62487        -0.46396
   H      -13.16848         2.29446        -1.56691
   H      -13.62291         1.82306         0.07928
   H      -13.71160         9.19940        -0.43939
   H      -18.02614         6.75567         0.75598
   H      -18.39448        12.49090        -1.62899
   H      -20.74102        11.62685        -0.88443
   H      -15.61305        12.33650        -1.74800
   H      -14.11204         9.87418        -2.75460
   H      -13.30013        11.53313        -4.37868
   H      -13.43913        16.11549        -0.06423
   H      -13.25145        18.40544        -0.93457
   H      -12.50132        16.16818        -5.93649
   H      -12.28074        18.49276        -6.74013
   H      -12.47421        20.37473        -5.16528
   H      -12.88685        19.96125        -2.77464
*
