# ORCA input file
# SCF done       -209.414981306515          0.000793627733
! CAM-B3LYP def2-SVP def2/J RIJCOSX Grid4 TightSCF
%maxcore 5000
%tddft
    Mode sTDDFT
    Ethresh 5.0
    maxcore 5000
end

%pal
  nprocs 6
  end
* xyz 0 1
   C      -10.32828         2.30695         1.36456
   C      -11.63855         2.43443         1.73235
   F      -12.19548         3.64933         1.83071
   C      -12.41872         1.29507         2.01133
   F      -13.70152         1.44885         2.36919
   C      -11.87762         0.04316         1.91945
   C      -10.53051        -0.12094         1.54392
   C       -9.74102         1.03043         1.25926
   C       -8.38733         0.88956         0.87445
   C       -7.84350        -0.36329         0.77643
   C       -8.63685        -1.50728         1.06930
   C       -9.94436        -1.40313         1.44525
   C       -7.82000        -2.72821         0.90833
   O       -8.17061        -3.86518         1.15639
   C       -6.48159        -2.25881         0.48908
   C       -6.50893        -0.81530         0.39344
   C       -5.49565        -0.01459        -0.06963
   C       -4.25700        -0.48172        -0.55724
   N       -3.24160        -0.78120        -1.00259
   C       -5.58005         1.38976        -0.15889
   N       -5.58931         2.53453        -0.24671
   C       -5.35107        -3.03379         0.43260
   C       -5.25573        -4.44404         0.36787
   C       -4.14051        -5.06154         0.97138
   C       -3.98161        -6.49806         1.03868
   N       -2.84706        -6.83465         1.66883
   S       -2.08664        -5.50420         2.12896
   N       -3.13265        -4.42555         1.57507
   C       -4.89137        -7.37545         0.42411
   C       -5.97917        -6.76661        -0.24758
   C       -7.00146        -7.41870        -0.91397
   S       -8.07585        -6.33982        -1.65633
   C       -7.23542        -4.98084        -1.07517
   C       -6.15492        -5.32608        -0.29487
   C       -4.63171        -8.79518         0.36631
   C       -4.62298        -9.47030        -0.86159
   C       -4.23582       -10.86147        -0.97002
   N       -4.24303       -11.27389        -2.24320
   S       -4.66201       -10.05211        -3.19330
   N       -4.87198        -8.93968        -2.06791
   C       -3.92885       -11.65782         0.14506
   C       -3.87564       -10.96737         1.39116
   C       -3.46469       -11.45825         2.61535
   S       -3.58035       -10.29881         3.85684
   C       -4.16334        -9.11376         2.79545
   C       -4.23665        -9.56275         1.49126
   C       -3.71201       -13.06822        -0.00803
   C       -4.02380       -13.98558         0.97683
   C       -3.84004       -15.35744         0.87545
   C       -3.27858       -15.96878        -0.32447
   C       -2.92896       -15.26162        -1.42587
   S       -3.09381       -13.56609        -1.56999
   C       -3.24281       -17.36436        -0.06144
   C       -3.72304       -17.62140         1.22709
   C       -3.80952       -19.00980         1.48275
   C       -3.37584       -19.74295         0.42577
   S       -2.85612       -18.79539        -0.92647
   C       -4.08488       -16.36996         1.84383
   C       -4.60933       -16.13977         3.12716
   C       -4.50251       -16.95989         4.22383
   C       -3.56133       -17.98747         4.35593
   C       -3.45164       -18.89080         5.38759
   C       -2.17323       -19.58727         5.63482
   O       -1.20116       -19.61700         4.91320
   C       -2.32366       -20.21316         6.97466
   C       -3.62718       -19.97677         7.44847
   C       -3.99410       -20.40959         8.71097
   C       -3.06441       -21.09883         9.48824
   C       -1.77192       -21.34602         8.99814
   C       -1.39581       -20.89797         7.72670
   C       -0.81675       -22.07475         9.75153
   N        0.01282       -22.68078        10.25751
   C       -3.39066       -21.53963        10.88502
   O       -2.55602       -21.61474        11.74107
   O       -4.67171       -21.83969        11.13261
   C       -4.38541       -19.27665         6.40858
   C       -5.75827       -19.23168         6.33396
   C       -6.46350       -18.83264         5.18098
   N       -7.07570       -18.57274         4.24529
   C       -6.59667       -19.72690         7.34981
   N       -7.29245       -20.12894         8.17074
   H       -9.74506         3.18958         1.15306
   H      -12.48830        -0.81909         2.13713
   H       -7.81422         1.77949         0.67039
   H      -10.52504        -2.28702         1.66162
   H       -4.39319        -2.53660         0.53581
   H       -7.15436        -8.47338        -1.00876
   H       -7.56409        -4.00128        -1.35293
   H       -3.04966       -12.41780         2.84454
   H       -4.40926        -8.14161         3.16721
   H       -4.49837       -13.60091         1.86729
   H       -2.53600       -15.73565        -2.31161
   H       -4.19228       -19.44861         2.38553
   H       -3.32579       -20.81126         0.34773
   H       -5.16991       -15.22159         3.25390
   H       -5.11292       -16.72136         5.08484
   H       -2.73875       -18.00394         3.64967
   H       -4.97087       -20.17506         9.10760
   H       -0.40198       -21.08168         7.34765
   H       -5.25471       -21.76457        10.36411
*
