# ORCA input file
# SCF done       -192.290133440429          0.000802511657
! CAM-B3LYP def2-SVP def2/J RIJCOSX Grid4 TightSCF
%maxcore 5000
%tddft
    Mode sTDDFT
    Ethresh 5.0
    maxcore 5000
end

%pal
  nprocs 6
  end
* xyz 0 1
   C       -0.78867        -1.46884         2.43338
   C       -0.78588        -0.89259         3.66598
   C       -0.83480         0.51224         3.57614
   C       -0.87850         0.96296         2.24772
   S       -0.85764        -0.32641         1.12888
   C       -0.93063         2.38271         2.24803
   C       -0.90633         2.82300         3.57977
   C       -0.88502         1.65707         4.45772
   C       -0.98398         1.67038         5.82094
   C       -1.16576         2.87845         6.51832
   N       -1.35607         3.87639         7.05317
   C       -0.96657         0.49058         6.59230
   N       -0.94761        -0.47102         7.21631
   C       -0.90341         4.20813         3.70378
   C       -0.96787         4.84645         2.47355
   S       -0.99172         3.68502         1.14379
   C       -0.99740         6.22804         2.18382
   S       -0.71514         6.74720         0.55474
   C       -0.82916         8.43107         0.96544
   C       -1.09748         8.57960         2.34119
   C       -1.21470         7.33376         3.02898
   C       -1.56004         7.33849         4.39107
   C       -1.72465         8.52656         5.05200
   S       -2.13961         8.56401         6.77690
   C       -1.56605         9.76934         4.38382
   O       -1.72323        10.95020         5.02202
   C       -1.26777         9.78243         3.04246
   C       -0.65203         9.44693         0.01684
   C       -0.44587         9.25107        -1.31955
   C       -0.18770        10.26920        -2.27030
   C       -0.05323        11.60802        -1.95750
   C        0.30090        12.61402        -2.84372
   C        0.37236        12.35652        -4.28662
   C        0.25579        11.12608        -4.83483
   S        0.02072         9.69312        -3.91977
   C        0.57531        13.62995        -4.88695
   C        0.65462        14.61160        -3.89770
   C        0.87487        15.89688        -4.43896
   C        0.95086        15.85996        -5.79512
   S        0.76744        14.27524        -6.46866
   C        0.52436        13.99280        -2.60523
   C        0.64038        14.66668        -1.37319
   C        0.89585        14.06095        -0.17650
   C        0.89863        14.66214         1.10210
   C        1.06077        13.88075         2.23697
   C        1.02394        14.34349         3.53934
   C        0.84738        15.76322         3.83568
   C        0.67771        16.71588         2.89137
   S        0.63530        16.39279         1.20659
   C        0.88228        15.85802         5.25461
   C        1.04417        14.59279         5.82243
   C        1.10703        14.66417         7.23178
   C        0.98770        15.94186         7.67957
   S        0.79370        17.11232         6.42348
   C        1.12230        13.61548         4.75926
   C        1.24831        12.22878         4.83900
   C        1.24112        11.46905         5.98727
   C        1.34954        10.08244         5.95789
   C        1.35081         9.21728         7.03693
   C        0.99396         7.80438         6.84763
   O        0.86695         7.20025         5.79734
   C        0.75729         7.27382         8.21277
   C        1.03480         8.28080         9.15403
   C        1.52475         9.46307         8.44077
   C        2.21146        10.49674         9.03532
   C        2.95967        11.46728         8.34133
   N        3.62546        12.26479         7.85059
   C        2.34529        10.65347        10.42811
   N        2.46815        10.85175        11.55318
   C        0.84569         8.03490        10.50129
   C        0.38769         6.78003        10.89084
   C        0.12923         5.78240         9.95350
   C        0.31372         6.02788         8.59798
  Br       -0.47905         4.07508        10.50364
  Br        0.11513         6.45086        12.73514
   H       -0.75408        -2.51297         2.19526
   H       -0.74728        -1.44744         4.58560
   H       -0.78870         4.73015         4.63254
   H       -1.72115         6.41380         4.91654
   H       -2.13158         7.24813         6.94996
   H       -1.92941        10.80690         5.95489
   H       -1.18017        10.73804         2.55208
   H       -0.68984        10.45121         0.41310
   H       -0.45330         8.23542        -1.69408
   H       -0.26052        11.88381        -0.93663
   H        0.32357        10.95460        -5.89742
   H        0.96987        16.79986        -3.86372
   H        1.10815        16.68130        -6.46665
   H        0.54136        15.74504        -1.40041
   H        1.13826        13.00886        -0.17005
   H        1.21437        12.82303         2.06908
   H        0.54323        17.75793         3.13343
   H        1.25941        13.83703         7.89851
   H        1.00544        16.28247         8.69629
   H        1.35997        11.69486         3.90320
   H        1.09864        11.96086         6.93431
   H        1.33305         9.59602         4.98730
   H        1.03262         8.78402        11.25352
   H        0.09718         5.25977         7.87074
*
