# ORCA input file
# SCF done       -231.268595355516          0.000593646497
! CAM-B3LYP def2-SVP def2/J RIJCOSX Grid4 TightSCF
%maxcore 5000
%tddft
    Mode sTDDFT
    Ethresh 5.0
    maxcore 5000
end

%pal
  nprocs 6
  end
* xyz 0 1
   C       -0.13161         2.69464        10.50407
   C       -1.09345         2.79522         9.54587
   C       -0.60180         3.43555         8.39181
   C        0.74192         3.80510         8.51751
   S        1.39350         3.37231        10.03328
   C        1.15271         4.44506         7.31179
   C        0.06347         4.47319         6.43223
   C       -1.07737         3.84082         7.08181
   C       -2.32922         3.67488         6.56451
   C       -2.67611         4.12787         5.27477
   N       -2.96815         4.49849         4.22945
   C       -3.36391         3.04497         7.28668
   N       -4.21037         2.53433         7.86821
   C        0.36959         5.07739         5.21135
   C        1.68864         5.48018         5.14741
   S        2.54871         5.15858         6.64667
   C        2.27947         6.23392         4.08791
   S        1.28471         7.47709         3.40264
   C        2.58433         8.14422         2.47999
   C        3.75875         7.40006         2.67890
   C        3.57317         6.27654         3.55602
   C        4.65153         5.35961         3.70767
   C        4.53392         3.99166         4.31051
   F        3.30149         3.46393         4.26195
   F        5.31894         3.10812         3.66276
   F        4.93175         3.92700         5.59965
   C        5.87687         5.67607         3.17513
   C        6.08904         6.83700         2.42834
   C        5.04052         7.67485         2.11968
   O        5.14095         8.74202         1.30212
   C        6.40579         9.09927         0.79175
   C        2.38928         9.29991         1.69543
   C        1.17596         9.85914         1.44605
   C        0.98285        11.01935         0.65875
   S       -0.44185        11.08576        -0.32639
   C        0.10422        12.47774        -1.20357
   C        1.38657        12.85990        -0.76625
   C        1.82625        12.11159         0.38033
   C        2.93966        12.60564         1.11199
   C        3.28666        12.20423         2.51940
   F        4.32343        11.34155         2.60064
   F        3.68116        13.27737         3.23416
   F        2.28114        11.66746         3.21939
   C        3.69598        13.62498         0.58197
   C        3.41350        14.15782        -0.67834
   C        2.27419        13.80001        -1.35860
   O        2.05380        14.38422        -2.57709
   C        2.00870        13.50771        -3.68570
   C       -0.79310        13.08074        -2.11337
   C       -0.80024        14.39874        -2.46066
   C       -1.68188        14.93661        -3.42108
   S       -2.42539        13.84950        -4.55375
   C       -3.15304        15.12593        -5.46793
   C       -2.85514        16.37224        -4.88542
   C       -2.03863        16.26805        -3.71141
   C       -1.74003        17.45308        -2.98762
   C       -1.03067        17.45097        -1.66613
   F        0.29413        17.21504        -1.76123
   F       -1.13083        18.63160        -1.03307
   F       -1.52061        16.54260        -0.80174
   C       -2.16091        18.66502        -3.47785
   C       -2.90019        18.77155        -4.65745
   C       -3.27553        17.64821        -5.35916
   O       -4.02937        17.67397        -6.48011
   C       -4.47698        18.91528        -6.97868
   C       -3.89703        14.84078        -6.62949
   C       -4.09989        13.58972        -7.12441
   C       -4.81570        13.30512        -8.30681
   C       -5.01156        12.05369        -8.87448
   C       -5.74226        12.11913       -10.05747
   C       -6.11568        13.42795       -10.39939
   S       -5.56336        14.58001        -9.26472
   C       -6.84871        13.38313       -11.61524
   C       -6.93523        12.04975       -12.03958
   C       -6.24532        11.20972       -11.08320
   C       -6.08450         9.85458       -11.12747
   C       -6.60924         9.06971       -12.17484
   N       -7.03325         8.42668       -13.02454
   C       -5.37708         9.14949       -10.13242
   N       -4.79975         8.57224        -9.32652
   C       -7.64772        11.91549       -13.24744
   C       -8.07906        13.12153       -13.70649
   S       -7.63408        14.45458       -12.68858
   H       -0.21748         2.25666        11.47821
   H       -2.09653         2.42860         9.66549
   H       -0.31293         5.19915         4.38991
   H        6.70193         4.99261         3.30460
   H        7.07985         7.02446         2.05144
   H        6.81348         8.31464         0.14745
   H        7.11074         9.32191         1.59682
   H        6.23671         9.99982         0.20379
   H        3.27266         9.73005         1.25464
   H        0.28055         9.34076         1.76681
   H        4.53579        14.01171         1.13821
   H        4.07162        14.88851        -1.11932
   H        1.25538        12.72475        -3.56998
   H        2.98811        13.04380        -3.84597
   H        1.75637        14.12788        -4.54335
   H       -1.59302        12.44447        -2.47434
   H       -0.08297        15.05391        -2.00001
   H       -1.93211        19.56931        -2.93647
   H       -3.19075        19.75467        -4.98645
   H       -5.06034        18.67728        -7.86676
   H       -3.63876        19.55999        -7.25758
   H       -5.11328        19.43102        -6.25405
   H       -4.31418        15.68482        -7.15636
   H       -3.68665        12.73316        -6.60684
   H       -4.62820        11.15213        -8.43230
   H       -7.83274        10.98428       -13.75091
   H       -8.64196        13.32483       -14.59526
*
