# ORCA input file
# SCF done       -231.951018955695          0.000818757326
! CAM-B3LYP def2-SVP def2/J RIJCOSX Grid4 TightSCF
%maxcore 5000
%tddft
    Mode sTDDFT
    Ethresh 5.0
    maxcore 5000
end

%pal
  nprocs 6
  end
* xyz 0 1
   C      -13.62684        -4.29843        -3.61924
   C      -13.55168        -3.65312        -4.82197
   F      -14.64095        -3.07043        -5.34294
   C      -12.33429        -3.59256        -5.52750
   F      -12.28914        -2.95435        -6.70603
   C      -11.20773        -4.17829        -5.02076
   C      -11.25343        -4.85190        -3.78534
   C      -12.48405        -4.91285        -3.07035
   C      -12.55439        -5.58445        -1.82712
   C      -11.42943        -6.17599        -1.31896
   C      -10.20555        -6.11504        -2.04270
   C      -10.10613        -5.47494        -3.24303
   C       -9.16975        -6.86011        -1.30282
   O       -8.04122        -7.11465        -1.69119
   C       -9.81476        -7.34258        -0.07700
   C      -11.19708        -6.92052        -0.08297
   C      -12.11610        -7.10423         0.92012
   C      -11.85243        -7.73135         2.15506
   N      -11.70748        -8.20807         3.19017
   C      -13.45134        -6.65628         0.85885
   N      -14.55101        -6.32523         0.86562
   C       -9.24469        -8.20750         0.83274
   C       -7.89194        -8.48764         1.03916
   S       -7.50313        -9.93731         1.95613
   C       -5.79233        -9.61247         1.97462
   C       -5.52918        -8.41534         1.27735
   C       -6.70427        -7.80428         0.76073
   S       -6.37640        -6.30762        -0.01843
   C       -4.67234        -6.52851         0.27572
   C       -3.74223        -5.52644        -0.25278
   O       -4.08208        -4.45972        -0.70205
   O       -2.47465        -5.95863        -0.19207
   C       -1.47052        -5.08928        -0.71658
   C       -0.99322        -4.09331         0.32950
   C       -4.37122        -7.68105         0.94727
   C       -4.93943       -10.48655         2.65530
   C       -3.64066       -10.19914         3.00727
   C       -2.79036       -11.06198         3.68835
   C       -1.53593       -10.67605         4.13115
   C       -0.57668       -11.44944         4.81277
   C        0.55899       -10.76265         5.15131
   C        0.53937        -9.41286         4.76044
   S       -0.94450        -9.04000         3.92380
   C        1.48639        -8.41994         4.98635
   C        2.72948        -8.50892         5.63633
   C        3.39345        -7.31593         5.70562
   C        2.69981        -6.22686         5.13048
   S        1.18578        -6.78187         4.46185
   C        3.18108        -4.93239         5.09031
   C        2.59642        -3.74694         4.64752
   S        3.65044        -2.33698         4.60666
   C        2.39363        -1.26734         4.04914
   C        1.19310        -1.98675         3.91462
   C        1.31298        -3.36024         4.23708
   S       -0.20653        -4.17585         4.08139
   C       -0.96736        -2.69373         3.57027
   C       -2.38892        -2.69692         3.20451
   O       -2.99479        -1.71791         2.84880
   O       -2.89864        -3.92998         3.29614
   C       -4.27010        -4.09685         2.93193
   C       -5.20806        -3.66282         4.04770
   C       -0.11695        -1.62849         3.53001
   C        2.60935         0.09080         3.80789
   C        3.82991         0.70186         3.93974
   C        4.03137         2.06717         3.71315
   C        5.19950         2.77198         3.86897
   C        5.35274         4.08466         3.19544
   O        4.47531         4.75196         2.69443
   C        6.80396         4.36603         3.21644
   C        7.48819         5.39094         2.63117
   C        8.89674         5.42934         2.74371
   C        9.56803         4.39726         3.46064
   C       10.97330         4.43280         3.55736
   C       11.67875         5.44679         2.97239
   C       11.01370         6.46859         2.26657
   C        9.65145         6.46171         2.15417
   F       11.73094         7.45065         1.70217
   F       13.01559         5.47740         3.06461
   C        8.82991         3.35406         4.06695
   C        7.46626         3.34204         3.95184
   C        6.45632         2.42407         4.48099
   C        6.66340         1.54641         5.51806
   C        5.64259         0.87385         6.22016
   N        4.85893         0.33540         6.86444
   C        7.92778         1.28872         6.08446
   N        8.93507         1.01670         6.56455
   H      -14.56690        -4.33482        -3.09115
   H      -10.28305        -4.12303        -5.57357
   H      -13.50128        -5.61707        -1.31294
   H       -9.16570        -5.44246        -3.77159
   H       -9.91692        -8.77225         1.46735
   H       -1.87611        -4.56232        -1.58628
   H       -0.65926        -5.75211        -1.02540
   H       -1.79395        -3.40158         0.57951
   H       -0.15315        -3.52632        -0.06176
   H       -0.68240        -4.62138         1.22832
   H       -3.35864        -7.96537         1.16175
   H       -5.36721       -11.42808         2.97395
   H       -3.25346        -9.21488         2.78743
   H       -3.11002       -12.07381         3.89655
   H       -0.74668       -12.48717         5.03865
   H        1.39208       -11.19347         5.67677
   H        3.10390        -9.43406         6.03549
   H        4.35588        -7.18477         6.16731
   H        4.19149        -4.81613         5.46491
   H       -4.37124        -5.16428         2.72347
   H       -4.46896        -3.52002         2.02252
   H       -4.98280        -4.20532         4.96305
   H       -6.23371        -3.86774         3.75529
   H       -5.10142        -2.59647         4.23036
   H       -0.43190        -0.64439         3.23652
   H        1.74746         0.67907         3.52246
   H        4.67551         0.08299         4.20620
   H        3.20811         2.63320         3.28990
   H        6.96358         6.16073         2.08599
   H       11.49794         3.66001         4.09722
   H        9.15711         7.25104         1.60983
   H        9.36579         2.58405         4.59846
*
