# ORCA input file
# SCF done       -233.740216984022          0.000830987688
! CAM-B3LYP def2-SVP def2/J RIJCOSX Grid4 TightSCF
%maxcore 5000
%tddft
    Mode sTDDFT
    Ethresh 5.0
    maxcore 5000
end

%pal
  nprocs 6
  end
* xyz 0 1
   C       -8.16658        -8.20726        11.01300
   C       -7.61225        -8.93526        12.02607
   F       -8.26411        -9.06252        13.19809
   C       -6.37883        -9.59200        11.85413
   F       -5.86022       -10.28234        12.87974
   C       -5.73376        -9.55037        10.64995
   C       -6.30559        -8.85572         9.56599
   C       -7.53049        -8.15204         9.75574
   C       -8.12352        -7.44762         8.68355
   C       -7.53448        -7.48890         7.44768
   C       -6.32155        -8.21027         7.26202
   C       -5.70429        -8.86720         8.28728
   C       -5.89242        -8.08337         5.85551
   O       -4.92837        -8.61352         5.34054
   C       -6.88329        -7.20253         5.21171
   C       -7.94844        -6.93366         6.16380
   C       -9.14024        -6.30599         5.91754
   C      -10.04037        -5.89455         6.92643
   N      -10.75651        -5.44954         7.70452
   C       -9.62587        -5.98808         4.63264
   N      -10.08928        -5.75430         3.60723
   C       -6.78378        -6.62483         3.97803
   C       -5.72412        -6.62306         3.04591
   C       -5.83511        -5.98209         1.80950
   C       -4.61844        -5.96279         1.07589
   C       -3.59944        -6.66683         1.77885
   S       -4.14439        -7.30657         3.30495
   C       -2.32406        -6.87923         1.28367
   C       -1.32768        -7.68662         2.05999
   C       -1.49738        -9.17889         1.76455
   C       -2.05097        -6.35936         0.01701
   C       -3.05523        -5.63137        -0.67218
   C       -4.32840        -5.40464        -0.18539
   C       -5.29764        -4.60437        -1.00114
   C       -6.12385        -5.49055        -1.93522
   S       -2.46720        -5.06758        -2.21935
   C       -0.93187        -5.80371        -1.93094
   C       -0.84694        -6.43765        -0.74327
   C       -7.17569        -5.68713         1.30495
   C       -8.04643        -6.68984         0.96139
   C       -9.32990        -6.20928         0.54624
   C       -9.40306        -4.79997         0.66680
   S       -7.90383        -4.11245         1.24394
   C      -10.52260        -4.05169         0.35845
   C      -10.52116        -2.55827         0.48092
   C      -10.13626        -1.90722        -0.84925
   C      -11.62401        -4.76295        -0.12507
   C      -11.54317        -6.16760        -0.27870
   C      -10.42463        -6.91950         0.04239
   C      -10.39623        -8.39294        -0.23499
   C       -9.72312        -8.66991        -1.58112
   S      -13.02935        -6.81182        -0.92988
   C      -13.72472        -5.22994        -0.97623
   C      -12.89644        -4.26253        -0.53555
   C       -7.58279        -8.06546         1.16826
   C       -7.98738        -8.79344         2.24974
   C       -7.31797        -9.93074         2.71899
   C       -6.05479       -10.35722         2.12804
   C       -5.53288        -9.83857         0.99172
   S       -6.26125        -8.54929         0.13619
   C       -5.56241       -11.37662         2.98764
   C       -6.44918       -11.59006         4.04381
   C       -6.02628       -12.66268         4.86128
   C       -4.84598       -13.18633         4.43451
   S       -4.20670       -12.42643         3.02324
   C       -7.56913       -10.68257         3.88844
   C       -8.75690       -10.56087         4.63122
   C       -9.00774       -10.84497         5.95431
   C       -8.02778       -11.07823         6.91534
   C       -8.17357       -11.21970         8.28092
   C       -7.07607       -11.86692         9.02266
   O       -5.97546       -12.15577         8.59998
   C       -7.60359       -12.10754        10.38528
   C       -8.87603       -11.51748        10.49140
   C       -9.55710       -11.57864        11.69629
   C       -8.96836       -12.23893        12.77360
   C       -7.71348       -12.84949        12.64525
   C       -7.01532       -12.77550        11.43552
   C       -7.10974       -13.51213        13.74269
   N       -6.56292       -14.04350        14.59663
   C       -9.71779       -12.36293        14.07233
   O       -9.87434       -13.41561        14.61976
   O      -10.22324       -11.22604        14.55924
   C       -9.21761       -10.89035         9.20753
   C      -10.23879        -9.97967         9.04780
   C      -10.47799        -9.20800         7.89752
   N      -10.72017        -8.52090         7.00783
   C      -11.10613        -9.59255        10.08812
   N      -11.81696        -9.22367        10.91168
   H       -9.10634        -7.69974        11.16902
   H       -4.80033       -10.07566        10.52292
   H       -9.03433        -6.89966         8.86411
   H       -4.78651        -9.41051         8.12324
   H       -7.61685        -6.00355         3.67084
   H       -1.48317        -7.51687         3.12745
   H       -0.31389        -7.37457         1.80807
   H       -2.48144        -9.51567         2.08269
   H       -0.74931        -9.75541         2.30197
   H       -1.38686        -9.37199         0.69931
   H       -4.73059        -3.89460        -1.60843
   H       -5.95725        -4.03447        -0.34980
   H       -6.72298        -6.19942        -1.36937
   H       -5.47047        -6.04730        -2.60252
   H       -6.79070        -4.87656        -2.53496
   H       -0.17331        -5.71520        -2.68441
   H        0.03782        -6.94899        -0.41080
   H       -9.80261        -2.26181         1.24883
   H      -11.50756        -2.20991         0.78904
   H       -9.14105        -2.22593        -1.15174
   H      -10.13806        -0.82439        -0.75364
   H      -10.83958        -2.18970        -1.62948
   H      -11.42162        -8.76674        -0.26594
   H       -9.86619        -8.92420         0.55468
   H      -10.26709        -8.17491        -2.38190
   H       -9.70823        -9.73828        -1.78180
   H       -8.69896        -8.30164        -1.58432
   H      -14.72845        -5.12443        -1.33976
   H      -13.16996        -3.22386        -0.49857
   H       -8.82694        -8.40672         2.81317
   H       -4.61766       -10.19876         0.55020
   H       -6.55270       -13.05727         5.71029
   H       -4.29687       -13.99492         4.87536
   H       -9.59786       -10.15917         4.07642
   H      -10.03897       -10.80766         6.26920
   H       -7.00605       -11.19158         6.57535
   H      -10.54151       -11.15221        11.81270
   H       -6.03825       -13.22205        11.33211
   H       -9.96382       -10.43360        14.06671
*
