# ORCA input file
# SCF done       -216.221696113842          0.000514850821
! CAM-B3LYP def2-SVP def2/J RIJCOSX Grid4 TightSCF
%maxcore 5000
%tddft
    Mode sTDDFT
    Ethresh 5.0
    maxcore 5000
end

%pal
  nprocs 6
  end
* xyz 0 1
   C        3.36771         2.94005         1.82327
   C        3.88307         4.07305         1.24800
   C        4.97024         4.07073         0.34878
   N        5.85317         4.12606        -0.38185
   C        3.45230         5.37645         1.55933
   N        3.14081         6.45507         1.80135
   C        3.94197         1.60446         1.69719
   C        3.48514         0.80763         2.78791
   C        3.89016        -0.48610         2.94977
   C        4.77452        -1.05405         2.00515
   C        5.21746        -0.26888         0.90114
   C        4.78776         1.07114         0.76274
   C        6.09068        -0.85140        -0.03955
   C        6.51098        -2.14581         0.10348
   C        6.07623        -2.91736         1.19150
   C        5.22671        -2.38317         2.12212
   C        2.55246         1.59677         3.60818
   O        2.00719         1.28367         4.64108
   C        2.35807         2.87584         2.85898
   C        1.29507         3.66028         3.18540
   C        0.67137         4.67581         2.42723
   C        0.73794         4.91651         1.06185
   C       -0.05408         5.99003         0.67874
   C       -0.74534         6.57736         1.75956
   S       -0.42436         5.79206         3.23385
   C       -1.51765         7.65564         1.26245
   C       -1.30391         7.75781        -0.12472
   C       -0.38222         6.71263        -0.53752
   C        0.06334         6.45440        -1.80073
   C       -0.37439         7.21193        -2.90735
   N       -0.75528         7.82957        -3.79523
   C        0.97127         5.40628        -2.06101
   N        1.70953         4.55011        -2.25153
   C       -2.02876         8.79083        -0.71308
   C       -2.82249         9.45879         0.20444
   S       -2.61468         8.83352         1.83454
   C       -3.70512        10.54995        -0.03128
   C       -4.05062        11.52001         0.86433
   C       -4.81998        12.52515         0.17365
   C       -5.38579        13.65156         0.78701
   N       -5.85142        14.56839         1.29629
   C       -4.91625        12.19112        -1.15544
   C       -4.29476        10.91684        -1.34248
   C       -4.41693        10.10482        -2.44474
   C       -4.74877        10.51789        -3.83053
   C       -4.90943         9.37525        -4.56739
   C       -4.71299         8.23752        -3.70638
   C       -4.38916         8.67354        -2.44547
   C       -4.83956         6.89966        -4.10433
   N       -4.94231         5.80315        -4.42723
   C       -4.75099        11.86027        -4.29854
   C       -5.29524        12.24851        -5.48091
   C       -5.34344        13.58431        -5.94718
   C       -4.83622        14.74211        -5.36909
   C       -5.13179        15.87516        -6.11771
   C       -5.87228        15.58762        -7.28208
   S       -6.19278        13.91982        -7.44932
   C       -6.14272        16.79802        -7.95641
   C       -5.56889        17.86355        -7.22217
   C       -4.92017        17.31543        -6.04257
   C       -4.26672        17.98937        -5.05414
   C       -4.13086        19.39500        -5.02942
   N       -4.01322        20.53310        -4.96981
   C       -3.68315        17.31016        -3.96260
   N       -3.21044        16.74885        -3.08159
   C       -5.78614        19.10494        -7.80402
   C       -6.52588        19.01215        -8.97723
   S       -6.95400        17.33334        -9.34845
   C       -7.03645        19.97417        -9.87165
   C       -6.83868        21.32442        -9.95797
   C       -7.53010        22.17952       -10.91087
   C       -8.63173        21.85520       -11.66099
   C       -9.26546        22.74343       -12.55594
   N       -9.82747        23.40894       -13.30371
   C       -9.32120        20.62470       -11.63544
   N       -9.95177        19.66456       -11.66081
   C       -6.89817        23.49220       -10.87542
   C       -5.89408        23.48192        -9.86695
   C       -5.83439        22.15173        -9.24027
   O       -5.08321        21.81661        -8.34890
   C       -5.13739        24.58313        -9.58703
   C       -5.35244        25.76984       -10.32268
   C       -6.34840        25.78639       -11.34173
   C       -7.11767        24.63015       -11.60622
   C       -6.55082        26.97384       -12.07412
   C       -5.80789        28.09278       -11.81237
   C       -4.82888        28.07586       -10.80766
   C       -4.60601        26.93924       -10.07851
   H        3.53891        -1.07075         3.78699
   H        5.12728         1.63989        -0.08880
   H        6.42479        -0.25240        -0.87381
   H        7.18147        -2.58246        -0.62137
   H        6.41713        -3.93724         1.28840
   H        4.88822        -2.97271         2.96158
   H        0.82478         3.41516         4.13334
   H        1.30363         4.30323         0.38445
   H       -1.97079         9.06611        -1.74985
   H       -3.77362        11.56938         1.90083
   H       -5.49550        12.72043        -1.88656
   H       -5.10961         9.29993        -5.61895
   H       -4.26612         8.04947        -1.58210
   H       -4.28945        12.60168        -3.66399
   H       -5.77233        11.51168        -6.11184
   H       -4.28166        14.74682        -4.44928
   H       -5.43031        20.04507        -7.42149
   H       -7.69587        19.54294       -10.61634
   H       -4.38542        24.54773        -8.81281
   H       -7.85987        24.67517       -12.38708
   H       -7.30693        26.98236       -12.84546
   H       -5.97107        28.99771       -12.37823
   H       -4.25208        28.96793       -10.61449
   H       -3.85367        26.92005        -9.30372
*
