# ORCA input file
# SCF done       -134.860725275153          0.000721592970
! CAM-B3LYP def2-SVP def2/J RIJCOSX Grid4 TightSCF
%maxcore 5000
%tddft
    Mode sTDDFT
    Ethresh 5.0
    maxcore 5000
end

%pal
  nprocs 6
  end
* xyz 0 1
   C        2.75159         1.01883         4.82385
   C        3.28582         1.11910         3.54506
   C        2.89220         2.19751         2.69231
   N        3.40779         2.28835         1.46182
   C        4.26853         1.39038         1.05635
   C        4.65490         0.33295         1.90126
   N        4.17839         0.19941         3.10742
   C        1.96176         3.19891         3.09681
   C        1.42824         3.06933         4.41505
   C        1.83803         1.97481         5.25616
   N        1.33938         1.84465         6.50986
   C        0.48304         2.73024         6.93087
   C        0.07443         3.80033         6.11769
   N        0.53851         3.95605         4.90042
   C        1.66125         4.21863         2.16128
   S        2.41653         4.22209         0.57834
   C        1.60043         5.70544         0.05834
   C        0.76167         6.16997         1.08708
   C        0.81492         5.33062         2.23711
   N       -0.00962         5.83628         3.17676
   C       -0.59732         6.97021         2.67625
   C       -1.50579         7.73759         3.41206
   N       -2.25034         8.38124         4.00464
   C       -0.14514         7.20508         1.38832
   C        1.88862         6.18447        -1.20472
   C        1.58180         7.28413        -2.04203
   C        2.44504         6.74468        -3.11350
   C        3.04180         6.71421        -4.31449
   S        4.03871         5.27297        -4.42880
   C        3.61086         4.73532        -2.80656
   C        2.76969         5.62030        -2.26356
   C        0.80797         8.43805        -1.90315
   C        0.67899         9.41836        -2.83535
   C       -0.10251        10.60761        -2.61944
   C       -1.08248        10.69358        -1.63018
   C       -1.74971        11.89278        -1.38395
   C       -1.37595        12.98957        -2.17772
   N       -0.49528        12.90967        -3.15583
   C        0.11346        11.76485        -3.38552
   C       -2.71863        11.96832        -0.31993
   S       -2.56852        10.87935         1.02091
   C       -3.93799        11.53358         1.84505
   C       -4.48459        12.58624         1.11349
   C       -3.80874        12.81680        -0.13147
   C       -4.32848        13.78101        -1.01893
   C       -5.39786        14.56353        -0.66488
   C       -5.93683        15.54209        -1.60728
   C       -5.21821        16.20948        -2.50047
   C       -5.99019        14.41824         0.63017
   C       -7.09367        15.33922         1.05516
   C       -5.54503        13.44658         1.47752
   C       -4.31552        10.91744         3.08715
   C       -5.52567        10.92999         3.64407
   H        3.03771         0.21390         5.47866
   H        4.65927         1.50295         0.05549
   H        5.36689        -0.41280         1.57451
   H        0.09948         2.60585         7.93425
   H       -0.63900         4.53735         6.46260
   H       -0.10869         5.37190         4.08076
   H       -0.45987         8.02803         0.78089
   H        3.01014         7.37937        -5.15408
   H        4.03257         3.82398        -2.43454
   H        0.30625         8.54683        -0.95496
   H        1.22512         9.34527        -3.76606
   H       -1.35842         9.82291        -1.05345
   H       -1.78395        13.97366        -2.00048
   H        0.83206        11.76606        -4.19461
   H       -3.90652        13.87286        -2.00671
   H       -7.00196        15.72123        -1.54589
   H       -4.14999        16.09609        -2.57987
   H       -5.67229        16.91096        -3.17931
   H       -6.81069        16.37823         0.89349
   H       -7.32143        15.19926         2.10916
   H       -8.00096        15.14362         0.48270
   H       -5.98706        13.34536         2.45593
   H       -3.52763        10.34439         3.56045
   H       -6.37469        11.41034         3.19070
   H       -5.70338        10.42031         4.57468
*
