# ORCA input file
# SCF done       -141.284624430036          0.000878151659
! CAM-B3LYP def2-SVP def2/J RIJCOSX Grid4 TightSCF
%maxcore 5000
%tddft
    Mode sTDDFT
    Ethresh 5.0
    maxcore 5000
end

%pal
  nprocs 6
  end
* xyz 0 1
   C        1.81268         2.18677         2.84521
   N        0.77958         2.53332         3.55167
   C        0.58978         3.86174         3.29683
   C        1.59370         4.35554         2.34146
   C        1.39986         5.78776         2.07679
   O        2.03763         6.51423         1.34524
   C        0.23973         6.11587         2.92828
   C       -0.22184         4.90316         3.65215
   N       -1.28263         5.20090         4.44604
   C       -1.49577         6.47772         4.27169
   C       -0.57822         7.11405         3.33751
   C        2.39251         3.27680         2.05230
   C        3.53302         3.19799         1.20741
   S        4.45673         1.74042         1.02296
   C        5.55682         2.52436        -0.04888
   C        6.60231         1.74856        -0.69118
   O        7.21971         2.08615        -1.66969
   C        5.22003         3.86436        -0.24080
   C        4.06679         4.23183         0.46714
   C        6.08550         4.77592        -0.95503
   N        5.69394         5.73916        -1.83805
   C        4.35957         5.98543        -2.33442
   C        3.74850         7.24557        -1.72772
   C        6.80270         6.47096        -2.32414
   O        6.70552         7.35632        -3.14936
   C        7.93949         5.90336        -1.63540
   C        7.45417         4.85649        -0.80508
   C        8.57067         4.27639        -0.09817
   O        8.64323         3.38797         0.72436
   N        9.67918         5.01526        -0.55646
   C       11.01719         4.67089        -0.14287
   C       11.73848         3.84067        -1.20186
   C        9.31850         5.97503        -1.47430
   C       10.25122         6.85936        -2.08898
   C        9.88149         7.78216        -3.00236
   C       10.76644         8.71102        -3.66634
   C       10.23836         9.63704        -4.56734
   C       11.08376        10.54089        -5.21678
   C       12.45171        10.48260        -4.91104
   N       12.96198         9.60275        -4.07295
   C       12.15884         8.74227        -3.47964
   C       10.54062        11.49268        -6.15328
   N        9.23442        11.60539        -6.33420
   C        9.07250        12.56361        -7.26534
   C       10.39020        13.09660        -7.70473
   C       10.20666        14.14623        -8.73213
   O       11.04914        14.79172        -9.30770
   C        8.73922        14.19790        -8.87018
   C        8.09384        13.21866        -7.95924
   N        6.74362        13.26782        -8.08980
   C        6.51955        14.18704        -8.99237
   C        7.72002        14.80770        -9.52350
   C       11.31364        12.41493        -6.99528
   H        2.18542         1.17699         2.86320
   H       -2.29469         6.97309         4.79567
   H       -0.58784         8.15078         3.06508
   H        6.76256         0.76360        -0.21534
   H        3.64690         5.22207         0.48060
   H        3.74228         5.10909        -2.12507
   H        4.43914         6.11704        -3.41837
   H        3.62442         7.15606        -0.65181
   H        2.77266         7.42318        -2.17089
   H        4.38668         8.09938        -1.93949
   H       10.90432         4.07984         0.77047
   H       11.57726         5.58005         0.09472
   H       11.17367         2.93397        -1.40399
   H       12.72689         3.56463        -0.84484
   H       11.84201         4.39551        -2.13185
   H       11.28385         6.76432        -1.78790
   H        8.83816         7.85487        -3.28110
   H        9.17979         9.66655        -4.77839
   H       13.16278        11.16861        -5.34870
   H       12.65620         8.04150        -2.82345
   H        5.51167        14.42553        -9.28605
   H        7.74610        15.57754       -10.26904
   H       12.38162        12.49620        -7.02245
*
