# ORCA input file
# SCF done       -144.257208640025          0.000635034561
! CAM-B3LYP def2-SVP def2/J RIJCOSX Grid4 TightSCF
%maxcore 5000
%tddft
    Mode sTDDFT
    Ethresh 5.0
    maxcore 5000
end

%pal
  nprocs 6
  end
* xyz 0 1
   C        4.70720         0.27287         1.21487
   N        4.61669        -1.01281         1.08058
   C        4.77600        -1.25147        -0.25878
   C        4.98362         0.00480        -0.99007
   C        5.14954        -0.25189        -2.42854
   O        5.33834         0.54049        -3.32221
   C        5.02478        -1.72538        -2.50422
   C        4.79962        -2.28775        -1.14868
   N        4.68194        -3.64128        -1.20963
   C        4.81474        -3.94023        -2.47303
   C        5.02933        -2.78855        -3.34072
   C        4.93823         0.99909        -0.04245
   C        5.07443         2.40310        -0.17608
   S        4.93814         3.45803         1.20337
   C        5.21048         4.86893         0.21971
   C        5.39981         4.50460        -1.12208
   C        5.31775         3.12096        -1.32867
   C        5.65531         5.44550        -2.21799
   O        5.80672         5.11135        -3.36481
   C        5.21618         6.16446         0.77069
   C        4.98634         6.44458         2.08528
   C        4.98917         7.76409         2.58452
   N        4.75258         8.09504         3.89849
   C        4.53642         7.17748         4.99129
   C        5.84002         6.53813         5.46283
   C        4.79616         9.48261         4.10990
   O        4.60981        10.00375         5.19158
   C        5.08153        10.03611         2.80323
   C        5.19570         8.96174         1.89245
   C        5.48379         9.51228         0.58696
   O        5.66820         8.98577        -0.49443
   N        5.53320        10.89747         0.79565
   C        5.75814        11.80782        -0.30144
   C        4.45619        12.42862        -0.80164
   C        5.28838        11.23242         2.10936
   C        5.27632        12.55909         2.59149
   C        5.00276        12.86461         3.89187
   C        4.97448        14.17524         4.41784
   C        5.22849        15.39581         3.79022
   C        5.10112        16.48371         4.63021
   C        4.74213        16.13424         5.93003
   S        4.57066        14.41573         6.08944
   C        4.53131        17.02511         7.00273
   N        4.68215        18.34374         6.84955
   C        4.40335        18.87560         8.04585
   C        4.04798        17.82128         9.03149
   C        3.73794        18.42732        10.34722
   O        3.40963        17.87341        11.37003
   C        3.93053        19.86313        10.08623
   C        4.33368        20.09199         8.68067
   N        4.51029        21.41296         8.44368
   C        4.24850        22.00396         9.58621
   C        3.88010        21.09829        10.65145
   C        4.13370        16.65216         8.36242
   H        4.61729         0.73748         2.18235
   H        4.76089        -4.96453        -2.79928
   H        5.15829        -2.82702        -4.40439
   H        5.43296         2.66058        -2.29582
   H        5.70190         6.50688        -1.91961
   H        5.41409         6.98253         0.09157
   H        4.78390         5.63475         2.77308
   H        3.81395         6.41382         4.69003
   H        4.10443         7.77089         5.80182
   H        6.30790         5.96609         4.66467
   H        5.64153         5.87382         6.29907
   H        6.53432         7.30856         5.78904
   H        6.20945        11.21254        -1.10011
   H        6.46896        12.58054         0.00438
   H        3.78444        11.64880        -1.15154
   H        4.66425        13.10274        -1.62773
   H        3.95741        12.98479        -0.01077
   H        5.49204        13.34913         1.88768
   H        4.78459        12.06152         4.58397
   H        5.49901        15.47419         2.75300
   H        5.25142        17.51130         4.35431
   H        4.31638        23.07502         9.66940
   H        3.62941        21.38226        11.65432
   H        3.96047        15.64745         8.69525
*
