# ORCA input file
# SCF done       -131.275269950042          0.000701808133
! CAM-B3LYP def2-SVP def2/J RIJCOSX Grid4 TightSCF
%maxcore 5000
%tddft
    Mode sTDDFT
    Ethresh 5.0
    maxcore 5000
end

%pal
  nprocs 6
  end
* xyz 0 1
   C        4.01691        -0.56874         0.98672
   N        3.17997        -1.55445         1.08470
   C        1.94138        -0.99741         0.96954
   C        2.04356         0.46565         0.77497
   C        0.69365         1.04978         0.65393
   O        0.37715         2.20393         0.47356
   C       -0.18679        -0.12447         0.80426
   C        0.62660        -1.35351         0.98824
   N       -0.18136        -2.43863         1.13247
   C       -1.39680        -1.97355         1.05862
   C       -1.47544        -0.53137         0.85595
   C        3.38462         0.75069         0.79272
   C        4.05780         2.02347         0.65924
   C        3.30760         3.18660         0.44184
   C        3.92506         4.40940         0.31205
   F        3.15287         5.49365         0.12111
   C        5.31158         4.56650         0.39977
   C        6.06165         3.41600         0.62265
   C        5.44760         2.18617         0.74170
   F        6.25227         1.12718         0.94291
   C        5.94694         5.88399         0.27537
   C        5.55888         6.78379        -0.71407
   C        6.15914         8.02256        -0.80394
   F        5.77042         8.83961        -1.79911
   C        7.16620         8.43423         0.07197
   C        7.55669         7.53233         1.05939
   C        6.95703         6.29346         1.14830
   F        7.34846         5.47486         2.14102
   C        7.78744         9.75970        -0.03408
   C        7.02201        10.89945        -0.26591
   C        7.61598        12.14243        -0.35241
   F        6.81041        13.19474        -0.55667
   C        8.99914        12.32048        -0.21739
   C        9.76703        11.16986         0.00982
   C        9.17092         9.93534         0.09839
   F        9.95551         8.86092         0.29427
   C        9.67899        13.59132        -0.29031
   N       10.98220        13.64886        -0.05102
   C       11.32460        14.94212        -0.18980
   C       10.14038        15.76229        -0.55545
   C       10.52383        17.18472        -0.70376
   O        9.83046        18.12598        -1.00221
   C       11.96689        17.15593        -0.39246
   C       12.40754        15.77004        -0.09126
   N       13.73266        15.74535         0.20246
   C       14.12707        16.98836         0.10906
   C       13.07558        17.92284        -0.25614
   C        9.10144        14.90125        -0.61124
   H        5.07292        -0.75848         1.04537
   H       -2.24059        -2.63639         1.14451
   H       -2.38083         0.03609         0.77196
   H        2.23056         3.14009         0.37713
   H        7.13628         3.46426         0.69622
   H        4.79364         6.52314        -1.42751
   H        8.31865         7.79318         1.77605
   H        5.95071        10.83066        -0.36894
   H       10.83516        11.27557         0.11223
   H       15.15481        17.24771         0.29721
   H       13.19891        18.98029        -0.38028
   H        8.07385        15.09617        -0.84072
*
