# ORCA input file
# SCF done       -116.655592126686          0.000757299740
! CAM-B3LYP def2-SVP def2/J RIJCOSX Grid4 TightSCF
%maxcore 5000
%tddft
    Mode sTDDFT
    Ethresh 5.0
    maxcore 5000
end

%pal
  nprocs 6
  end
* xyz 0 1
   C        3.97579         3.78259         3.98324
   N        4.59519         3.85109         5.12501
   C        5.91776         3.95792         4.81681
   C        6.11131         3.96362         3.35108
   C        7.54092         4.06389         3.03333
   O        8.08262         4.09121         1.94290
   C        8.17303         4.12898         4.35864
   C        7.13788         4.06179         5.42136
   N        7.71654         4.12863         6.64805
   C        8.99861         4.23051         6.41974
   C        9.35621         4.23746         5.00877
   C        4.85486         3.85002         2.81149
   C        4.44887         3.79032         1.42823
   C        5.34623         4.16501         0.42951
   C        4.99018         4.05148        -0.91290
   C        3.67830         3.62571        -1.18038
   N        2.82187         3.27984        -0.24354
   C        3.18743         3.33372         1.02231
   C        5.92645         4.35684        -1.96019
   S        5.39788         4.62613        -3.59927
   C        7.00742         4.87478        -4.20777
   C        7.92468         4.74982        -3.17385
   C        7.30467         4.46816        -1.90899
   N        8.28258         4.36996        -0.97026
   C        9.49232         4.59849        -1.58797
   C       10.69931         4.57858        -0.87283
   N       11.69510         4.57072        -0.30373
   C        9.31806         4.83893        -2.93366
   C        7.22619         5.16744        -5.59759
   C        6.21234         5.67850        -6.40590
   C        6.47489         5.97843        -7.74433
   C        7.77625         5.75215        -8.21795
   N        8.72600         5.22795        -7.47020
   C        8.46822         4.93139        -6.21402
   C        5.43423         6.54306        -8.56520
   N        4.26500         6.88108        -8.04281
   C        3.54217         7.38949        -9.05769
   C        4.32426         7.36726       -10.32252
   C        3.52565         7.93369       -11.43309
   O        3.83879         8.07294       -12.59056
   C        2.25905         8.28417       -10.76320
   C        2.31583         7.93226        -9.32213
   N        1.14978         8.25648        -8.70765
   C        0.39968         8.77245        -9.64671
   C        1.02918         8.82149       -10.95402
   C        5.52011         6.82982       -10.00204
   H        2.90361         3.69793         3.95380
   H        9.69328         4.30262         7.23853
   H       10.35134         4.31423         4.61736
   H        6.30385         4.56840         0.70697
   H        3.31766         3.56117        -2.19882
   H        2.45092         2.99234         1.73561
   H        8.19068         4.16709         0.01661
   H       10.09777         5.06190        -3.63304
   H        5.22155         5.85948        -6.01613
   H        8.06643         6.00268        -9.22800
   H        9.27533         4.46323        -5.66991
   H       -0.59430         9.11754        -9.41912
   H        0.58017         9.20764       -11.84747
   H        6.36505         6.63509       -10.63136
*
