# ORCA input file
# SCF done       -135.075931191111          0.000387837341
! CAM-B3LYP def2-SVP def2/J RIJCOSX Grid4 TightSCF
%maxcore 5000
%tddft
    Mode sTDDFT
    Ethresh 5.0
    maxcore 5000
end

%pal
  nprocs 6
  end
* xyz 0 1
   C        0.23773        -6.61112        -2.83450
   C       -0.68266        -7.25190        -3.60414
   S       -2.25706        -6.57828        -3.38577
   C       -1.66374        -5.40585        -2.23168
  Cl       -2.70322        -4.28477        -1.50174
   C       -0.32245        -5.55499        -2.04886
   C        0.72784        -4.91535        -1.24793
   O        0.58636        -3.98412        -0.48445
   C        1.97052        -5.66280        -1.57900
   C        1.66140        -6.68456        -2.56927
   C        2.50583        -7.57047        -3.18958
   C        2.02057        -8.49888        -4.13488
   N        1.64902        -9.26363        -4.90554
   C        3.89743        -7.68701        -3.00741
   N        5.03266        -7.84103        -2.91745
   C        3.22710        -5.50149        -1.05400
   C        3.74779        -4.59739        -0.11313
   C        3.21911        -3.52083         0.58872
   C        4.12699        -2.89748         1.42500
   C        5.39473        -3.46976         1.40282
   S        5.44127        -4.81141         0.30464
   C        6.52941        -3.07868         2.13938
   S        6.48620        -1.72227         3.24712
   C        8.15727        -1.90327         3.71897
   C        8.72433        -2.98033         3.03619
   C        7.80590        -3.62585         2.15730
   N        8.44886        -4.65081         1.54565
   C        9.74944        -4.67725         2.00901
   C       10.67420        -5.63401         1.56427
   N       11.43608        -6.41432         1.20958
   C        9.95493        -3.66711         2.92501
   C        8.74585        -1.02763         4.64954
   C        8.14301         0.04420         5.29818
   C        9.00822         0.74741         6.11574
   C       10.29855         0.23091         6.14006
   S       10.40818        -1.17782         5.11985
   C       11.41713         0.62686         6.90163
   C       11.67238         1.82272         7.50759
   C       12.67434         1.85628         8.61816
   O       13.43603         0.97053         8.92403
   C       12.47214         3.16458         9.25319
   C       12.94904         3.83857        10.33673
   S       12.20013         5.41449        10.45694
   C       11.26148         5.14686         9.03216
   C       11.50607         3.91745         8.50762
   C       11.09623         3.14099         7.35099
   C       10.48997         3.67327         6.24099
   C       10.03614         5.00729         6.21964
   N        9.63882         6.08356         6.19712
   C       10.33470         2.99605         5.01808
   N       10.22041         2.49056         3.99359
  Cl       14.09980         3.32231        11.46743
   H       -0.55416        -8.07121        -4.28296
   H        3.97198        -6.19986        -1.41762
   H        2.19375        -3.21934         0.47727
   H        3.89721        -2.04832         2.04402
   H        8.06184        -5.28719         0.86816
   H       10.87011        -3.45717         3.43974
   H        7.10655         0.29266         5.15441
   H        8.70622         1.58504         6.71895
   H       12.15577        -0.14455         7.09922
   H       10.59209         5.91160         8.69134
*
