# ORCA input file
# SCF done       -175.194419668012          0.000326906391
! CAM-B3LYP def2-SVP def2/J RIJCOSX Grid4 TightSCF
%maxcore 5000
%tddft
    Mode sTDDFT
    Ethresh 5.0
    maxcore 5000
end

%pal
  nprocs 6
  end
* xyz 0 1
   C       11.52173        -7.16364         3.24020
   C       12.24162        -8.22677         3.69515
   S       12.91973        -9.12537         2.38995
   C       12.22995        -8.04525         1.20088
  Cl       12.46785        -8.28892        -0.45731
   C       11.51351        -7.05935         1.81066
   C       10.74807        -5.87805         1.39683
   O       10.66627        -5.39189         0.29726
   C       10.17703        -5.33437         2.68021
   C       10.74257        -6.08291         3.80508
   C       10.57517        -5.84826         5.13936
   C       11.17792        -6.67557         6.11300
   N       11.65987        -7.33785         6.91562
   C        9.82454        -4.79436         5.70177
   N        9.23429        -3.96260         6.22712
   C        9.29250        -4.32523         2.73304
   C        8.67475        -3.76065         1.52884
   N        8.73329        -2.44221         1.36734
   C        8.19506        -1.96140         0.25857
   C        7.59940        -2.76941        -0.69377
   C        7.54362        -4.14215        -0.41061
   N        8.07226        -4.61338         0.71879
   C        6.94230        -5.14276        -1.26510
   C        6.61619        -4.95385        -2.56038
   C        6.06617        -5.98515        -3.37438
   N        5.76595        -5.81985        -4.70709
   C        5.88897        -4.60853        -5.48045
   C        4.74211        -3.63824        -5.20620
   C        5.25072        -6.99917        -5.28364
   O        4.92165        -7.09312        -6.44802
   C        5.25156        -7.94609        -4.19439
   C        5.75323        -7.29922        -3.03884
   C        5.75417        -8.27199        -1.96912
   O        6.09882        -8.20847        -0.80709
   N        5.24405        -9.45042        -2.55588
   C        5.09966       -10.63753        -1.74895
   C        3.67764       -10.79237        -1.21326
   C        4.93675        -9.26657        -3.88502
   C        4.42975       -10.17223        -4.85156
   C        3.97643       -11.44228        -4.70503
   C        3.52256       -12.24369        -5.78822
   S        2.87766       -13.83099        -5.45906
   C        2.60759       -14.13851        -7.13992
   C        3.01182       -13.04303        -7.91719
   C        3.51820       -11.98800        -7.14379
   C        2.96680       -12.99557        -9.37224
   O        2.59787       -13.87697       -10.11178
   C        2.10591       -15.36326        -7.62856
   C        1.77935       -16.44076        -6.86969
   C        1.30570       -17.66575        -7.40282
   C        1.48614       -18.20268        -8.64231
   C        0.55557       -19.29796        -9.06948
   O       -0.21296       -19.89979        -8.35836
   C        0.76571       -19.41675       -10.51557
   C        0.22095       -20.10738       -11.55641
   S        1.02591       -19.69519       -13.05231
   C        2.09587       -18.60313       -12.25043
   C        1.84082       -18.55719       -10.91623
   C        2.38255       -17.89307        -9.74343
   C        3.61842       -17.30245        -9.71274
   C        4.40639       -17.18129       -10.87696
   N        5.06577       -17.07644       -11.80970
   C        4.26866       -16.82168        -8.56237
   N        4.86148       -16.43452        -7.65830
  Cl       -1.05119       -21.22538       -11.51869
   H       12.42063        -8.54576         4.70280
   H        8.97970        -3.88935         3.67173
   H        8.25183        -0.88683         0.13952
   H        7.17834        -2.35067        -1.59236
   H        6.80825        -6.11006        -0.79985
   H        6.79149        -3.99847        -3.03429
   H        5.86144        -4.91804        -6.52919
   H        6.85614        -4.13926        -5.27895
   H        3.79410        -4.10383        -5.46388
   H        4.86461        -2.74327        -5.80998
   H        4.71150        -3.35326        -4.15668
   H        5.78594       -10.51151        -0.90571
   H        5.41307       -11.51075        -2.32558
   H        3.44240        -9.95909        -0.55591
   H        3.59504       -11.71547        -0.64605
   H        2.94941       -10.80741        -2.02130
   H        4.40766        -9.72979        -5.83898
   H        3.92585       -11.91629        -3.73780
   H        3.88170       -11.07124        -7.57172
   H        3.32728       -12.03246        -9.77867
   H        1.97305       -15.40088        -8.70169
   H        1.81478       -16.35673        -5.79042
   H        0.65846       -18.25218        -6.75646
   H        2.82562       -18.06587       -12.82273
*
