# ORCA input file
# SCF done       -204.691872287001          0.000415870104
! CAM-B3LYP def2-SVP def2/J RIJCOSX Grid4 TightSCF
%maxcore 5000
%tddft
    Mode sTDDFT
    Ethresh 5.0
    maxcore 5000
end

%pal
  nprocs 6
  end
* xyz 0 1
   C        2.24302        -6.93937        -2.34274
   C        3.26311        -6.25851        -1.74030
   C        4.31106        -6.88063        -1.02764
   N        5.17433        -7.34569        -0.43410
   C        3.28138        -4.84818        -1.66946
   N        3.26625        -3.70659        -1.56022
   C        1.96985        -8.36787        -2.20966
   C        0.60010        -8.59197        -2.45756
   C        0.04630        -9.85051        -2.36592
   C        0.88035       -10.92144        -2.02524
   C        2.24870       -10.70649        -1.79494
   C        2.79700        -9.42942        -1.88872
   C        3.18395       -11.82971        -1.47587
   O        4.36505       -11.78669        -1.70170
   O        2.55357       -12.85926        -0.91863
   C        3.34427       -13.99803        -0.60196
   C        0.29710       -12.21228        -1.96906
   N       -0.25127       -13.21798        -1.96976
   C       -0.05061        -7.31685        -2.83743
   O       -1.21864        -7.10535        -3.04897
   C        1.07251        -6.34212        -2.95794
   C        0.89667        -5.19615        -3.66220
   C        1.86688        -4.34716        -4.25275
   S        3.44724        -4.90728        -4.71356
   C        3.77359        -3.41940        -5.52347
   C        5.07918        -3.22512        -6.21913
   F        6.12740        -3.49381        -5.42518
   F        5.20822        -4.02866        -7.29012
   F        5.22967        -1.97313        -6.65605
   C        2.74083        -2.53776        -5.45488
   C        1.63863        -3.05082        -4.72620
   C        0.44604        -2.30546        -4.54602
   C       -0.53424        -2.33475        -3.62063
   C       -1.64028        -1.45188        -3.84535
   C       -1.59267        -0.69857        -4.96756
   S       -0.01910        -1.06893        -5.79245
   O        0.85864         0.06745        -5.76246
   O       -0.21631        -1.71215        -7.06037
   C       -2.52459         0.20500        -5.51630
   C       -2.28162         0.79772        -6.71349
   C       -3.09565         1.67225        -7.48144
   S       -2.39138         2.23710        -8.96440
   C       -3.82685         3.12265        -9.38454
   C       -4.77991         3.02215        -8.37508
   C       -4.37769         2.19444        -7.31494
   C       -5.26078         1.91175        -6.12538
   C       -5.51118         0.48652        -6.03113
   N       -5.76572        -0.62525        -5.96874
   C       -6.62988         2.61378        -6.21158
   C       -6.49530         3.98548        -6.85335
   C       -6.06411         3.79656        -8.31385
   C       -5.96880         5.07710        -8.97335
   N       -5.92719         6.10558        -9.47072
   C       -3.80014         3.86208       -10.59693
   C       -4.82275         4.09043       -11.46695
   C       -4.78030         4.98457       -12.61417
   C       -3.88140         5.99156       -12.81846
   C       -3.93095         6.88948       -13.90912
   N       -3.91696         7.64992       -14.76695
   C       -2.81131         6.29969       -11.94796
   N       -1.92833         6.60676       -11.28325
   C       -5.95323         4.70231       -13.43547
   C       -6.74691         3.74410       -12.77717
   C       -6.09450         3.33691       -11.51664
   O       -6.49333         2.49724       -10.73571
   C       -7.92946         3.28361       -13.31437
   C       -8.34350         3.79686       -14.54781
   C       -7.55289         4.74517       -15.21640
   C       -6.35425         5.19368       -14.66663
   C       -7.93801         5.28893       -16.55498
   O       -7.14201         5.72341       -17.34573
   O       -9.25268         5.23477       -16.75338
   C       -9.72927         5.70014       -18.00944
   C       -9.54805         3.29079       -15.09658
   N      -10.51689         2.80867       -15.47277
   H       -1.00444       -10.00755        -2.55792
   H        3.85701        -9.31054        -1.72456
   H        2.64195       -14.79278        -0.36564
   H        3.98490       -13.78223         0.25520
   H        3.97026       -14.27143        -1.45312
   H       -0.13493        -4.94611        -3.89591
   H        2.74860        -1.55308        -5.88787
   H       -0.50122        -2.94420        -2.73093
   H       -2.45982        -1.42108        -3.14474
   H       -3.43618         0.35545        -4.95790
   H       -1.32828         0.56993        -7.17492
   H       -4.73606         2.23686        -5.21665
   H       -7.05000         2.69916        -5.20833
   H       -7.31324         2.00442        -6.80868
   H       -5.75329         4.58694        -6.32231
   H       -7.44976         4.51264        -6.81824
   H       -6.83703         3.22133        -8.84967
   H       -2.81740         4.23015       -10.86749
   H       -8.51963         2.54140       -12.79798
   H       -5.77038         5.90616       -15.22825
   H       -9.13585         5.27365       -18.82004
   H       -9.66216         6.78882       -18.05506
   H      -10.76463         5.37671       -18.07471
*
