# ORCA input file
# SCF done       -159.722950592822          0.000475820271
! CAM-B3LYP def2-SVP def2/J RIJCOSX Grid4 TightSCF
%maxcore 5000
%tddft
    Mode sTDDFT
    Ethresh 5.0
    maxcore 5000
end

%pal
  nprocs 6
  end
* xyz 0 1
   C        8.01490         4.02122         2.45711
   S        6.34576         4.23147         2.09632
   C        6.20600         2.57301         1.61247
   C        4.92074         2.05606         1.06036
   C        4.85690         2.26402        -0.45463
   C        7.40226         1.92402         1.71543
   C        8.45199         2.76126         2.20648
   C        9.84173         2.28137         2.48579
   C        9.87386         1.40094         3.73564
   C        7.59156         0.50930         1.35682
   C        6.96044        -0.48919         2.10866
   C        7.11371        -1.82594         1.80876
   C        7.91921        -2.17303         0.73078
   C        8.55423        -1.16306        -0.02096
   C        8.39927         0.17693         0.27561
   O        9.30062        -1.68447        -1.03348
   C        9.15996        -3.03599        -0.95291
   C        8.31699        -3.40656         0.11622
   C        8.05322        -4.75276         0.34230
   C        8.63121        -5.68826        -0.48421
   C        9.48056        -5.32425        -1.54598
   C        9.74083        -3.96927        -1.78303
   C       10.09666        -6.29438        -2.42074
   C       10.07157        -7.63357        -2.25976
   C       10.66595        -8.61448        -3.10452
   S       10.95197       -10.18061        -2.41689
   C       11.66794       -10.80897        -3.85398
   C       11.69602        -9.83347        -4.84790
   C       11.10002        -8.58806        -4.43407
   C       10.96890        -7.54863        -5.37430
   C       11.49550        -7.68952        -6.63464
   C       11.35704        -6.64625        -7.57635
   N       11.23449        -5.78597        -8.32437
   C       12.19731        -8.88304        -7.00219
   C       12.79129        -8.97386        -8.28075
   N       13.27763        -9.06599        -9.31477
   C       12.28148        -9.93527        -6.12669
   C       12.11350       -12.18467        -3.88835
   C       11.94892       -12.96553        -5.04545
   C       12.33871       -14.28612        -5.08669
   C       12.90423       -14.85331        -3.95074
   C       13.05419       -14.06966        -2.78471
   C       12.66322       -12.75008        -2.73489
   O       13.60682       -14.78159        -1.76880
   C       13.81575       -16.03892        -2.25451
   C       13.40401       -16.14985        -3.59921
   C       13.54166       -17.36965        -4.25431
   C       14.06596       -18.43636        -3.56193
   C       14.47040       -18.33141        -2.21749
   C       14.34951       -17.10186        -1.56082
   C       15.00722       -19.44626        -1.47348
   C       15.04818       -20.73403        -1.86248
   C       15.57815       -21.79579        -1.07107
   S       16.24670       -21.49684         0.51711
   C       16.62194       -23.17550         0.73319
   C       17.27207       -23.61821         2.00117
   C       17.49350       -25.12410         2.07216
   C       16.24695       -23.90046        -0.35565
   C       15.65077       -23.13563        -1.38333
   C       15.20149       -23.73681        -2.67903
   C       16.28039       -23.59034        -3.75445
   H        8.57722         4.85168         2.83591
   H        4.08572         2.57686         1.53313
   H        4.83470         0.98977         1.27948
   H        4.94467         3.32112        -0.69494
   H        3.91245         1.89496        -0.84660
   H        5.66922         1.72837        -0.94082
   H       10.49678         3.14298         2.62807
   H       10.21186         1.70549         1.63531
   H        9.49911         1.95136         4.59579
   H       10.89142         1.07962         3.94520
   H        9.25440         0.51832         3.59295
   H        6.35057        -0.19325         2.95002
   H        6.62423        -2.58791         2.39581
   H        8.87730         0.93789        -0.32098
   H        7.40424        -5.05378         1.15030
   H        8.41673        -6.73130        -0.31462
   H       10.38293        -3.65920        -2.59266
   H       10.65101        -5.86910        -3.24470
   H        9.60601        -8.04844        -1.37540
   H       10.43464        -6.64676        -5.12314
   H       12.81325       -10.83057        -6.40932
   H       11.46378       -12.53059        -5.90547
   H       12.19609       -14.87421        -5.97996
   H       12.78920       -12.16746        -1.83577
   H       13.24011       -17.47237        -5.28560
   H       14.17769       -19.38106        -4.07034
   H       14.65560       -16.99049        -0.53261
   H       15.39484       -19.20207        -0.49163
   H       14.65665       -21.03000        -2.82519
   H       16.65130       -23.29953         2.84454
   H       18.23263       -23.10260         2.10289
   H       16.54705       -25.65452         2.00020
   H       17.96211       -25.38397         3.01820
   H       18.14288       -25.45527         1.26545
   H       16.38339       -24.96404        -0.43584
   H       14.28042       -23.25802        -3.01763
   H       14.99063       -24.79661        -2.52332
   H       16.50445       -22.54043        -3.92933
   H       15.94747       -24.03698        -4.68860
   H       17.19609       -24.08594        -3.44007
*
