# ORCA input file
# SCF done       -214.121422262451          0.000750918590
! CAM-B3LYP def2-SVP def2/J RIJCOSX Grid4 TightSCF
%maxcore 5000
%tddft
    Mode sTDDFT
    Ethresh 5.0
    maxcore 5000
end

%pal
  nprocs 6
  end
* xyz 0 1
   C        0.85190         0.01395        -2.84806
   N        1.33731         1.26795        -2.98870
   C        2.44903         1.67658        -3.81621
   C        1.96923         2.23704        -5.14975
   C        0.54157         2.20331        -2.29730
   O        0.79788         3.39166        -2.24062
   C       -0.51909         1.40866        -1.71415
   C       -0.27290         0.04779        -2.05967
   C       -1.32618        -0.76071        -1.47475
   O       -1.54339        -1.94964        -1.48109
   N       -2.15935         0.18087        -0.83066
   C       -3.32279        -0.23067        -0.08270
   C       -3.08042        -0.16780         1.42292
   C       -1.70019         1.46697        -0.97475
   C       -2.38875         2.62459        -0.52961
   C       -1.87609         3.85854        -0.78185
   C       -2.50663         5.09364        -0.50797
   N       -3.57358         5.28010         0.25743
   C       -3.76566         6.60940         0.30310
   C       -2.74743         7.32714        -0.49094
   C       -2.98640         8.78498        -0.46224
   O       -2.40299         9.65487        -1.06412
   C       -4.15332         8.88853         0.43422
   C       -4.60551         7.54558         0.86070
   N       -5.69724         7.63862         1.65589
   C       -5.94279         8.92436         1.75144
   C       -5.02221         9.75984         1.00944
   C       -1.95473         6.36560        -1.03226
   C       -0.77560         6.45816        -1.84793
   N       -0.61722         5.82964        -3.05262
   C       -1.65251         5.19014        -3.82532
   C       -2.64335         6.20998        -4.37961
   C        0.68293         6.01942        -3.56971
   O        1.04572         5.57053        -4.63657
   C        1.34683         6.82547        -2.56883
   C        0.41028         7.08991        -1.53213
   C        1.05907         7.88888        -0.51609
   O        0.68960         8.31822         0.55305
   N        2.35106         8.10622        -1.04085
   C        3.33910         8.84378        -0.29412
   C        4.35896         7.92323         0.37246
   C        2.54027         7.46108        -2.24433
   C        3.74906         7.54358        -2.98141
   C        4.03279         6.75365        -4.05012
   C        5.18773         6.82860        -4.87366
   N        5.96563         7.93848        -5.12333
   C        5.77295         9.29505        -4.67025
   C        6.67079         9.62517        -3.47858
   C        6.99858         7.66389        -6.04832
   O        7.77271         8.50583        -6.44978
   C        6.84510         6.25844        -6.33922
   C        5.72249         5.78052        -5.62371
   C        5.60170         4.36922        -5.90114
   O        4.84787         3.51165        -5.48808
   N        6.63303         4.09908        -6.83109
   C        6.87590         2.73724        -7.24276
   C        8.16792         2.17920        -6.65311
   C        7.39059         5.21992        -7.08779
   C        8.51149         5.39390        -7.94279
   C        8.95151         4.58907        -8.93715
   C       10.06919         4.87662        -9.77672
   S       10.03731         4.20331       -11.39183
   C       11.49504         4.98357       -11.80607
   C       12.00749         5.71356       -10.76982
   C       11.20762         5.64681        -9.59102
   C       11.70300         6.19944        -8.32362
   O       11.23272         5.92326        -7.23491
   C       12.87862         7.08994        -8.45441
   C       13.27829         7.81206        -7.33242
   C       14.36748         8.65924        -7.38580
   C       15.09816         8.80613        -8.56155
   C       16.31294         9.68355        -8.61002
   C       17.56482         8.86873        -8.27529
   C       14.70831         8.07985        -9.67787
   C       13.60762         7.23088        -9.64324
   C       13.25057         6.48946       -10.87061
   O       13.91863         6.52888       -11.88642
   H        1.33488        -0.82430        -3.31587
   H        3.10156         0.81553        -3.96848
   H        3.00000         2.45520        -3.28506
   H        1.39336         1.49627        -5.70013
   H        2.83577         2.53292        -5.73142
   H        1.36020         3.12195        -4.98574
   H       -3.52260        -1.26309        -0.38304
   H       -4.17780         0.39128        -0.36310
   H       -2.25033        -0.81574         1.69393
   H       -3.96864        -0.50214         1.95139
   H       -2.84725         0.84663         1.73852
   H       -3.34809         2.53132        -0.04315
   H       -0.90724         3.93434        -1.25648
   H       -6.77027         9.27547         2.34338
   H       -5.05434        10.83004         0.95673
   H       -2.17363         4.44836        -3.21300
   H       -1.14118         4.67745        -4.64462
   H       -3.13589         6.74537        -3.57093
   H       -3.39942         5.70525        -4.97451
   H       -2.12795         6.93138        -5.00845
   H        2.78374         9.39188         0.47231
   H        3.83597         9.56663        -0.94882
   H        3.85366         7.24891         1.05926
   H        5.07916         8.51382         0.93219
   H        4.89051         7.32666        -0.36618
   H        4.47401         8.25845        -2.62526
   H        3.35150         5.95127        -4.30534
   H        4.71693         9.45132        -4.44120
   H        6.05345         9.94565        -5.50501
   H        6.51351         8.93238        -2.65417
   H        6.47282        10.63665        -3.13391
   H        7.71207         9.55850        -3.78278
   H        6.87468         2.66709        -8.33383
   H        6.02212         2.16547        -6.86493
   H        9.02686         2.77287        -6.95600
   H        8.31213         1.15547        -6.98783
   H        8.11153         2.18555        -5.56732
   H        9.01912         6.33174        -7.76598
   H        8.40413         3.70059        -9.21621
   H       11.91719         4.87806       -12.78624
   H       12.70881         7.69441        -6.42243
   H       14.65657         9.21615        -6.50619
   H       16.21083        10.49987        -7.89267
   H       16.41990        10.11195        -9.60801
   H       17.48246         8.43836        -7.27971
   H       18.44785         9.50193        -8.30841
   H       17.69079         8.05845        -8.98953
   H       15.25423         8.16238       -10.60689
*
