# ORCA input file
# SCF done       -204.533077207428          0.000534436713
! CAM-B3LYP def2-SVP def2/J RIJCOSX Grid4 TightSCF
%maxcore 5000
%tddft
    Mode sTDDFT
    Ethresh 5.0
    maxcore 5000
end

%pal
  nprocs 6
  end
* xyz 0 1
   C        4.64134         4.26650         2.96689
   N        4.34983         5.56372         3.24552
   C        5.23504         6.51019         3.87617
   C        6.32320         6.98596         2.91716
   C        3.06331         5.91970         2.76798
   O        2.58196         7.02652         2.90179
   C        2.57464         4.70293         2.16884
   C        3.58152         3.70042         2.31303
   C        3.07876         2.48927         1.70118
   O        3.55081         1.38238         1.57374
   N        1.80038         2.84716         1.20964
   C        0.97174         1.83319         0.60426
   C       -0.15154         1.38041         1.53389
   C        1.49266         4.16216         1.48804
   C        0.33915         4.92442         1.16125
   C       -0.73139         4.60673         0.39334
   C       -1.80290         5.50017         0.13405
   S       -1.89848         7.09174         0.83937
   C       -3.40107         7.42879         0.02248
   C       -3.79102         6.33486        -0.76311
   C       -2.88896         5.26490        -0.68262
   C       -4.99855         6.26621        -1.58578
   O       -5.30978         5.29373        -2.22951
   C       -4.07784         8.65120         0.18765
   C       -3.67749         9.64811         1.02861
   C       -4.40673        10.84652         1.16760
   N       -4.06749        11.86451         2.03072
   C       -2.89897        11.92058         2.87583
   C       -1.64367        12.28653         2.08799
   C       -4.98320        12.92527         1.97925
   O       -4.89151        13.92790         2.66316
   C       -5.96097        12.51043         0.99640
   C       -5.58335        11.23724         0.51863
   C       -6.56927        10.81622        -0.45525
   O       -6.66728         9.79889        -1.11747
   N       -7.48716        11.87006        -0.50182
   C       -8.60821        11.85582        -1.41271
   C       -8.33599        12.69595        -2.65706
   C       -7.14648        12.89241         0.35557
   C       -7.91849        14.05681         0.52914
   C       -7.56442        15.04335         1.40675
   C       -8.36274        16.18387         1.61530
   N       -8.05500        17.17682         2.51557
   C       -6.84764        17.27825         3.30219
   C       -5.68733        17.82059         2.47299
   C       -9.02338        18.18468         2.53873
   O       -8.97492        19.14900         3.27919
   C      -10.00728        17.76772         1.55663
   C       -9.58202        16.53456         1.01886
   C      -10.55251        16.11853         0.03073
   O      -10.62018        15.13230        -0.68054
   N      -11.50223        17.14892         0.02022
   C      -12.66579        17.08918        -0.83039
   C      -13.91662        16.68290        -0.05506
   C      -11.19477        18.14506         0.92075
   C      -11.94409        19.33018         1.08334
   C      -11.56914        20.29551         1.96979
   C      -12.25588        21.51283         2.14992
   C      -11.79495        22.56909         2.88270
   C      -12.73529        23.62340         3.36177
   O      -13.86453        23.81428         2.97545
   C      -11.99318        24.31066         4.42811
   C      -12.23259        25.28719         5.34700
   S      -10.81487        25.56535         6.33188
   C       -9.91045        24.36513         5.47944
   C      -10.66014        23.78528         4.50650
   C      -10.48390        22.79279         3.46071
   C       -9.27089        22.34355         3.01038
   C       -9.05756        21.64197         1.80597
   N       -8.81129        21.14684         0.80019
   C       -8.07477        22.66702         3.68343
   N       -7.09561        22.91723         4.22695
  Cl      -13.65880        26.16989         5.58905
   H        5.58077         3.83490         3.25950
   H        5.68253         6.04957         4.76195
   H        4.61396         7.35529         4.18503
   H        6.93335         6.14987         2.58234
   H        6.96393         7.70852         3.41456
   H        5.87379         7.45884         2.04737
   H        1.64161         0.98986         0.40827
   H        0.58263         2.19025        -0.35285
   H        0.27124         0.95059         2.43866
   H       -0.75522         0.62361         1.04055
   H       -0.79221         2.21320         1.81507
   H        0.37532         5.92070         1.58844
   H       -0.82659         3.64611        -0.08853
   H       -3.04118         4.34647        -1.22152
   H       -5.62251         7.17500        -1.58418
   H       -4.97971         8.79209        -0.39267
   H       -2.78215         9.51579         1.62067
   H       -2.77145        10.96227         3.38678
   H       -3.10257        12.69382         3.62190
   H       -1.44139        11.55231         1.31153
   H       -0.78973        12.32948         2.75800
   H       -1.76894        13.26013         1.62048
   H       -9.50272        12.21669        -0.89985
   H       -8.75417        10.80996        -1.69639
   H       -8.19419        13.74113        -2.39355
   H       -9.18068        12.62311        -3.33574
   H       -7.44510        12.33566        -3.16663
   H       -8.82835        14.15963        -0.04489
   H       -6.64992        14.94599         1.97405
   H       -6.59670        16.30022         3.71881
   H       -7.07285        17.97011         4.11829
   H       -5.44869        17.14351         1.65644
   H       -4.80900        17.92825         3.10243
   H       -5.94513        18.79375         2.06111
   H      -12.44467        16.33603        -1.59190
   H      -12.80909        18.05512        -1.32267
   H      -13.77478        15.70157         0.39104
   H      -14.76855        16.63859        -0.72780
   H      -14.13270        17.39501         0.73828
   H      -12.80362        19.49075         0.44726
   H      -10.70431        20.11145         2.59051
   H      -13.25736        21.61293         1.74529
   H       -8.89649        24.16751         5.76512
*
