# ORCA input file
# SCF done       -158.630001588267          0.001634452890
! CAM-B3LYP def2-SVP def2/J RIJCOSX Grid4 TightSCF
%maxcore 5000
%tddft
    Mode sTDDFT
    Ethresh 5.0
    maxcore 5000
end

%pal
  nprocs 6
  end
* xyz 0 1
   C       -8.97488         1.82548        -2.46607
   N       -8.60588         1.29383        -1.27661
   C       -9.24186         0.16993        -0.63277
   C      -10.71020         0.43560        -0.32064
   C       -7.47727         1.96189        -0.73430
   O       -6.96634         1.66151         0.32675
   C       -7.16922         2.97372        -1.71539
   C       -8.13007         2.86166        -2.76807
   C       -7.80939         3.85775        -3.75087
   O       -8.34800         4.17050        -4.80098
   N       -6.64802         4.48549        -3.26628
   C       -6.05201         5.53996        -4.05106
   C       -6.26028         6.91774        -3.43186
   C       -6.25366         3.96288        -2.04355
   C       -5.11335         4.26370        -1.23918
   C       -4.05316         5.04391        -1.54994
   C       -2.85267         5.27833        -0.80725
   S       -1.50648         5.82812        -1.78583
   C       -0.47913         5.89679        -0.42183
   C       -1.11671         5.54399         0.72959
   C       -2.47387         5.18426         0.52110
   C       -3.39956         4.95207         1.68732
   C       -2.62840         4.70736         2.98955
   C       -1.49317         5.70630         3.17819
   C       -0.45965         5.51347         2.07293
   N       -4.26033         6.11946         1.81327
   C       -5.53355         6.07786         1.36816
   C       -6.25796         7.11637         0.89850
   C       -7.55163         6.91248         0.32649
   C       -8.09864         7.80360        -0.60101
   C       -9.16787         7.48149        -1.46632
   N       -9.47749         8.47216        -2.35077
   C       -8.73583         9.49817        -2.20739
   S       -7.50855         9.39916        -0.97523
   C       -9.78896         6.21334        -1.41608
   C       -9.41156         5.43148        -0.31701
   C       -8.31981         5.74639         0.52344
   N       -8.08227         4.82533         1.50074
   C       -8.91187         3.86150         1.46914
   S      -10.11148         3.93004         0.20061
   C      -10.55862         5.70050        -2.51115
   S      -11.14749         4.07020        -2.49242
   C      -11.47212         4.11840        -4.19692
   C      -11.90678         2.91122        -4.82798
   O      -11.95456         1.83100        -4.27105
   C      -11.19856         5.37661        -4.72571
   C      -10.71311         6.26748        -3.76050
   C      -11.31715         5.69599        -6.13279
   S      -12.26180         7.05064        -6.67125
   C      -10.74764         5.03894        -7.18780
   O       -9.91714         3.97010        -7.12942
   C      -11.09121         5.59824        -8.46099
   N      -10.52620         5.03288        -9.58630
   N      -11.12743         5.04773       -10.85673
   C      -11.92331         6.69376        -8.35580
   C      -12.49156         7.52799        -9.37545
   C      -13.32642         8.54169        -9.15228
   H       -9.80944         1.43454        -3.02083
   H       -8.67700        -0.01329         0.28568
   H       -9.15388        -0.70881        -1.28134
   H      -10.81221         1.27719         0.35966
   H      -11.14758        -0.44365         0.14409
   H      -11.26350         0.65992        -1.22929
   H       -6.56082         5.50146        -5.01999
   H       -4.99262         5.32791        -4.21987
   H       -7.32195         7.15039        -3.41869
   H       -5.74724         7.67048        -4.02489
   H       -5.88344         6.95347        -2.41140
   H       -5.12318         3.71216        -0.31001
   H       -4.02102         5.51858        -2.51875
   H        0.54374         6.19498        -0.54051
   H       -4.04876         4.09153         1.50567
   H       -2.21737         3.69643         2.96920
   H       -3.33459         4.77152         3.81807
   H       -1.02353         5.55555         4.15081
   H       -1.88353         6.72527         3.15134
   H        0.02831         4.54229         2.20283
   H        0.31621         6.27965         2.12440
   H       -3.78729         7.01158         1.75283
   H       -5.99554         5.10339         1.41917
   H       -5.82541         8.10353         0.80330
   H       -8.83493        10.38740        -2.79812
   H       -8.89534         3.04061         2.15819
   H      -12.19375         3.02108        -5.88958
   H      -10.42045         7.27752        -3.98035
   H       -9.48859         3.91750        -6.25612
   H      -10.10056         4.13453        -9.38169
   H      -10.88712         5.91188       -11.33771
   H      -12.14343         4.97724       -10.79652
   H      -12.19986         7.30552       -10.39293
   H      -13.63817         8.80262        -8.15556
   H      -13.71890         9.13441        -9.95870
*
