# ORCA input file
# SCF done       -156.597567889616          0.000658154502
! CAM-B3LYP def2-SVP def2/J RIJCOSX Grid4 TightSCF
%maxcore 5000
%tddft
    Mode sTDDFT
    Ethresh 5.0
    maxcore 5000
end

%pal
  nprocs 6
  end
* xyz 0 1
   C       -4.77065         3.95123         3.16910
   C       -4.62627         2.86030         2.31950
   C       -3.53405         2.80067         1.39140
   N       -3.42711         1.75211         0.53835
   C       -4.31489         0.80767         0.62041
   C       -5.37461         0.85049         1.56315
   N       -5.53145         1.84881         2.37770
   C       -2.58953         3.83982         1.32850
   C       -2.74856         4.93885         2.19066
   C       -3.84650         4.98855         3.11369
   N       -3.99482         6.05204         3.94551
   C       -3.11513         7.00371         3.87293
   C       -2.01960         6.94731         2.97413
   N       -1.84176         5.94733         2.16355
   C       -1.46627         3.76854         0.39774
   C       -1.06710         4.86659        -0.35397
   C        0.00818         4.75833        -1.23952
   C        0.64330         3.51082        -1.31337
   N        0.28427         2.47276        -0.58712
   C       -0.73303         2.58596         0.24153
   C        0.41172         5.90992        -2.01615
   C        1.17760         5.85406        -3.12423
   C        1.61252         6.90606        -3.98249
   N        1.54546         8.27406        -3.82547
   C        1.14463         9.03428        -2.66664
   C        2.12158         8.87050        -1.50567
   C        2.07731         8.95132        -4.94367
   O        2.13284        10.16464        -5.02057
   C        2.48109         7.90572        -5.85020
   C        2.19147         6.66758        -5.22189
   C        2.57704         5.60225        -6.11669
   O        2.52473         4.39363        -6.02200
   N        3.07632         6.27583        -7.24989
   C        3.61578         5.54579        -8.36986
   C        5.14260         5.51917        -8.35107
   C        3.02899         7.64508        -7.10320
   C        3.46027         8.55519        -8.10118
   C        3.42558         9.90064        -7.92694
   C        3.84493        10.84388        -8.90365
   S        3.69621        12.54141        -8.57334
   C        4.34544        12.95444       -10.12335
   C        4.34556        14.33567       -10.54027
   O        4.54753        14.74488       -11.66048
   C        4.68251        11.81288       -10.84855
   C        4.38726        10.63341       -10.15879
   C        5.31247        11.85955       -12.16061
   C        6.41624        12.69778       -12.38217
   C        6.97168        12.83081       -13.69635
   N        7.98898        13.70144       -13.92000
   C        8.43080        14.38477       -12.90972
   C        7.93948        14.18415       -11.59306
   N        6.97107        13.35871       -11.33804
   C        6.46199        12.08638       -14.75494
   C        5.40968        11.20530       -14.53077
   C        4.82635        11.08613       -13.22474
   N        3.78198        10.24487       -13.01839
   C        3.34094         9.56886       -14.03653
   C        3.91988         9.68306       -15.32672
   N        4.92357        10.47113       -15.56458
   H       -5.59262         3.99340         3.86462
   H       -4.21252        -0.01705        -0.07205
   H       -6.09976         0.04994         1.62480
   H       -3.24653         7.84433         4.54128
   H       -1.28377         7.73990         2.93776
   H       -1.60921         5.79718        -0.27375
   H        1.48650         3.34664        -1.96969
   H       -0.97007         1.70716         0.82318
   H        0.01514         6.84884        -1.65927
   H        1.49273         4.88647        -3.49330
   H        0.12726         8.76314        -2.37229
   H        1.13863        10.07865        -2.99507
   H        2.18357         7.83267        -1.18659
   H        1.79752         9.47753        -0.66461
   H        3.11261         9.19924        -1.80934
   H        3.24422         5.97683        -9.30416
   H        3.23130         4.52604        -8.27564
   H        5.55179         6.52634        -8.39445
   H        5.51254         4.95247        -9.20127
   H        5.49219         5.04381        -7.43800
   H        3.82058         8.14298        -9.03176
   H        3.05388        10.30371        -6.99401
   H        4.09725        15.03205        -9.71508
   H        4.57784         9.66094       -10.57242
   H        9.22446        15.09311       -13.10672
   H        8.38014        14.69596       -10.74778
   H        6.86381        12.20862       -15.74751
   H        2.51206         8.89762       -13.85328
   H        3.54459         9.10296       -16.15945
*
