# ORCA input file
# SCF done       -166.745236399671          0.000862508914
! CAM-B3LYP def2-SVP def2/J RIJCOSX Grid4 TightSCF
%maxcore 5000
%tddft
    Mode sTDDFT
    Ethresh 5.0
    maxcore 5000
end

%pal
  nprocs 6
  end
* xyz 0 1
   C        5.24258        -5.23704         5.77523
   C        3.76328        -5.57509         5.89809
   O        3.27985        -6.57956         6.32154
   O        3.02970        -4.53858         5.44772
   C        3.85468        -3.51479         4.90953
   C        5.22168        -3.72230         5.58820
   C        6.39456        -3.11096         4.83303
   C        6.41448        -3.51148         3.36436
   C        5.11967        -3.16087         2.64109
   C        3.84624        -3.63663         3.36510
   O        2.80747        -2.80082         2.85979
   C        3.28868        -1.65450         2.38772
   O        2.61819        -0.75904         1.97054
   C        4.82727        -1.67058         2.44502
   C        5.38681        -1.05919         1.21076
   S        4.71193         0.39679         0.58572
   C        5.77850         0.34959        -0.78773
   C        5.52653         1.28792        -1.85233
   O        6.06204         1.29737        -2.93724
   C        6.62764        -0.75229        -0.73250
   C        6.37974        -1.54330         0.41222
   C        7.57963        -1.23724        -1.70330
   N        8.51961        -0.54380        -2.41303
   C        8.92695         0.83093        -2.24134
   C        9.37601         1.12555        -0.81461
   C        9.23069        -1.39206        -3.28378
   O       10.13455        -0.99808        -4.00354
   C        8.66392        -2.70112        -3.07260
   C        7.67152        -2.57236        -2.05864
   C        7.07889        -3.87011        -1.84078
   O        6.25751        -4.27366        -1.03907
   N        7.72568        -4.70215        -2.77513
   C        7.37842        -6.09633        -2.90428
   C        6.38363        -6.32931        -4.03912
   C        8.66711        -4.02108        -3.50955
   C        9.46594        -4.60367        -4.53894
   C       10.50366        -3.90745        -5.04442
   C       11.36245        -4.23841        -6.15173
   C       12.49648        -3.44290        -6.34547
   C       13.26786        -3.57959        -7.48650
   C       12.89643        -4.58250        -8.38104
   N       11.85341        -5.37279        -8.19649
   C       11.10130        -5.20730        -7.12795
   C       14.45223        -2.68844        -7.73744
   C       15.26990        -2.56265        -6.44809
   O       15.86395        -3.44112        -5.89892
   O       15.22999        -1.30800        -5.98804
   C       14.41990        -0.44782        -6.78129
   C       14.17262        -1.21484        -8.10080
   C       12.85344        -0.88435        -8.79943
   C       11.65068        -0.75451        -7.87161
   C       11.87770         0.21043        -6.71476
   C       13.19428        -0.00374        -5.94464
   O       13.49065         1.26333        -5.36766
   C       12.86090         2.26292        -6.00769
   O       13.01986         3.41349        -5.72927
   C       11.96669         1.68714        -7.09251
   H        5.64385        -5.75948         4.90556
   H        5.78622        -5.56888         6.65678
   H        3.39508        -2.55825         5.17836
   H        5.16821        -3.25955         6.58005
   H        7.32350        -3.42737         5.30948
   H        6.33982        -2.02390         4.91985
   H        6.57912        -4.58630         3.27487
   H        7.24711        -3.01325         2.86729
   H        5.13416        -3.62794         1.64966
   H        3.57997        -4.66534         3.10515
   H        5.11503        -1.07987         3.32388
   H        4.74021         2.02202        -1.59511
   H        6.92557        -2.44639         0.60877
   H        8.11365         1.49459        -2.54080
   H        9.76289         0.97413        -2.93228
   H        8.55387         1.01137        -0.11172
   H        9.74114         2.14693        -0.75629
   H       10.18086         0.45318        -0.52409
   H        6.92069        -6.38632        -1.95410
   H        8.28757        -6.68512        -3.05324
   H        5.47000        -5.77106        -3.85039
   H        6.13873        -7.38583        -4.10354
   H        6.79471        -6.00519        -4.99261
   H        9.22169        -5.59521        -4.88903
   H       10.71581        -2.94160        -4.60579
   H       12.75114        -2.71393        -5.59184
   H       13.46121        -4.76112        -9.28677
   H       10.24193        -5.85979        -7.05743
   H       15.07423        -3.16135        -8.50183
   H       15.01331         0.45575        -6.96575
   H       14.97688        -0.92030        -8.78486
   H       12.64977        -1.65652        -9.54376
   H       12.98821         0.05569        -9.33905
   H       11.38328        -1.72878        -7.46661
   H       10.79671        -0.40085        -8.45236
   H       11.06205         0.08124        -5.99574
   H       13.07278        -0.69616        -5.10754
   H       12.45431         1.84320        -8.05672
   H       11.00614         2.19695        -7.10795
*
