# ORCA input file
# SCF done       -148.875196017743          0.000694904730
! CAM-B3LYP def2-SVP def2/J RIJCOSX Grid4 TightSCF
%maxcore 5000
%tddft
    Mode sTDDFT
    Ethresh 5.0
    maxcore 5000
end

%pal
  nprocs 6
  end
* xyz 0 1
   C        9.20022        -6.72229         3.21348
   C       10.09828        -7.62181         3.69987
   S        9.93812        -9.15106         2.91478
   C        8.63153        -8.57943         1.90771
  Cl        7.89018        -9.57395         0.75082
   C        8.35980        -7.27030         2.19175
   C        7.42275        -6.26073         1.72096
   O        6.52935        -6.41871         0.91076
   C        7.75923        -5.02052         2.48526
   C        8.84217        -5.33466         3.42219
   C        9.45364        -4.50698         4.32195
   C       10.49970        -4.97411         5.14910
   N       11.34928        -5.33497         5.82939
   C        9.15670        -3.14762         4.55135
   N        8.97357        -2.04011         4.79128
   C        7.13085        -3.82098         2.40903
   C        6.07710        -3.42103         1.50802
   C        5.97570        -3.85040         0.18720
   C        4.87356        -3.47446        -0.58289
   C        3.97877        -2.55682        -0.01421
   N        4.09591        -2.10704         1.21719
   C        5.08626        -2.53482         1.96892
   C        4.67271        -4.03449        -1.89240
   S        3.79332        -3.22393        -3.15640
   C        3.96079        -4.54470        -4.28383
   C        4.66328        -5.59133        -3.68530
   C        5.05719        -5.28283        -2.34324
   N        5.70377        -6.35696        -1.82360
   C        5.72811        -7.34085        -2.78749
   C        6.33278        -8.58056        -2.53741
   N        6.83456        -9.59047        -2.32384
   C        5.11438        -6.90626        -3.94556
   C        3.40486        -4.46168        -5.57992
   S        2.61394        -3.01089        -6.13281
   C        2.23586        -3.72650        -7.67077
   C        2.71849        -5.04046        -7.73045
   C        3.37396        -5.43604        -6.55631
   C        2.57512        -5.94639        -8.86455
   O        3.03631        -7.05890        -8.90838
   C        1.50034        -3.02117        -8.64378
   C        1.12897        -1.71546        -8.53376
   C        0.39870        -0.99223        -9.50326
   C       -0.45804        -1.42263       -10.47658
   C       -0.75402        -0.48452       -11.60566
   O       -0.44864         0.68283       -11.66409
   C       -1.43790        -1.31176       -12.60564
   C       -1.91345        -1.16674       -13.87387
   S       -2.62932        -2.66047       -14.43416
   C       -2.28567        -3.45810       -12.94158
   C       -1.65363        -2.62493       -12.07331
   C       -1.15501        -2.67116       -10.70868
   C       -1.50815        -3.64349        -9.80634
   C       -2.26976        -4.76449       -10.19608
   N       -2.87343        -5.69185       -10.50008
   C       -1.22868        -3.61834        -8.42896
   N       -1.04435        -3.64245        -7.29579
  Cl       -1.87211         0.21313       -14.85575
   H       10.84165        -7.49753         4.46215
   H        7.40034        -3.06624         3.13772
   H        6.77153        -4.42151        -0.26138
   H        3.14291        -2.17625        -0.58630
   H        5.10059        -2.17054         2.98692
   H        5.99320        -6.47874        -0.86129
   H        5.01168        -7.47864        -4.84454
   H        3.79344        -6.41734        -6.44218
   H        2.00237        -5.53728        -9.71836
   H        1.25734        -3.56172        -9.54897
   H        1.48292        -1.15288        -7.67899
   H        0.57879         0.07932        -9.52662
   H       -2.56852        -4.48464       -12.81866
*
