# ORCA input file
# SCF done       -166.319298080798          0.000634713788
! CAM-B3LYP def2-SVP def2/J RIJCOSX Grid4 TightSCF
%maxcore 5000
%tddft
    Mode sTDDFT
    Ethresh 5.0
    maxcore 5000
end

%pal
  nprocs 6
  end
* xyz 0 1
   C       -0.03474         0.97234         0.13515
   C       -1.29062         1.49228         0.19526
   S       -2.45999         0.26432         0.51563
   C       -1.23364        -0.98044         0.56985
  Cl       -1.63126        -2.59957         0.86638
   C       -0.00008        -0.44343         0.35085
   C        1.38073        -0.92963         0.27585
   O        1.77091        -2.06998         0.38198
   C        2.19541         0.29118        -0.02445
   C        1.31432         1.45018        -0.08817
   C        1.65663         2.76166        -0.27847
   C        0.67842         3.77860        -0.29873
   N       -0.10614         4.61522        -0.32089
   C        2.96591         3.25046        -0.45805
   N        4.00888         3.70800        -0.60201
   C        3.51609         0.26881        -0.33685
   C        4.36269        -0.88515        -0.23030
   C        5.27868        -1.23288        -1.24151
   N        6.00239        -2.31842        -1.19479
   C        5.84575        -3.13725        -0.15111
   N        5.08460        -2.84533         0.90692
   C        4.38126        -1.74320         0.88264
   C        6.56597        -4.38229        -0.20781
   N        6.49918        -5.38784         0.71989
   C        5.68693        -5.44428         1.91233
   C        4.23418        -5.78246         1.59162
   C        7.29600        -6.48836         0.34773
   O        7.39873        -7.49652         1.01605
   C        7.89414        -6.08982        -0.90660
   C        7.43022        -4.78410        -1.21754
   C        8.03035        -4.38328        -2.47811
   O        7.96299        -3.38474        -3.15238
   N        8.81261        -5.50656        -2.84910
   C        9.62552        -5.48326        -4.04022
   C       11.09978        -5.25359        -3.71617
   C        8.73505        -6.51930        -1.92896
   C        9.38398        -7.77643        -2.09318
   C        9.32884        -8.77198        -1.18506
   C        9.95925       -10.05397        -1.42389
   N        9.82418       -10.97840        -0.47011
   C       10.37827       -12.15540        -0.68198
   C       11.06158       -12.46011        -1.85150
   C       11.14783       -11.43380        -2.80139
   N       10.61428       -10.23672        -2.56926
   C       11.83087       -11.59019        -4.07300
   C       11.98899       -12.76883        -4.70672
   C       12.68540       -12.87413        -5.94148
   C       12.99633       -13.98845        -6.65243
   C       13.46573       -13.80610        -8.06664
   O       13.81968       -12.76816        -8.57009
   C       13.34243       -15.13511        -8.67007
   C       13.49956       -15.69364        -9.90345
   S       13.13611       -17.40211        -9.85096
   C       12.78684       -17.34165        -8.16226
   C       12.93601       -16.08131        -7.67246
   C       12.83762       -15.40991        -6.38744
   C       12.77589       -16.07330        -5.19112
   C       12.65127       -17.47999        -5.14300
   N       12.53166       -18.61883        -5.07971
   C       12.90378       -15.51401        -3.90513
   N       13.03077       -15.14325        -2.82565
  Cl       13.97339       -14.93460       -11.34136
   H       -1.61397         2.50666         0.07105
   H        3.98125         1.16014        -0.73970
   H        5.39392        -0.62217        -2.12725
   H        3.84100        -1.50165         1.78764
   H        5.74491        -4.48713         2.43184
   H        6.12288        -6.23411         2.53083
   H        3.77779        -4.98962         1.00500
   H        3.67484        -5.89438         2.51588
   H        4.17985        -6.71554         1.03562
   H        9.24804        -4.65291        -4.64383
   H        9.49074        -6.41495        -4.59692
   H       11.22154        -4.30764        -3.19433
   H       11.67759        -5.21942        -4.63563
   H       11.48908        -6.05004        -3.08587
   H        9.93521        -7.95015        -3.00662
   H        8.80007        -8.67026        -0.24815
   H       10.26915       -12.88042         0.11438
   H       11.53614       -13.41607        -2.00029
   H       12.20322       -10.67547        -4.51425
   H       11.55193       -13.66121        -4.28667
   H       12.97011       -11.94085        -6.41786
   H       12.48820       -18.23893        -7.65776
*
