# ORCA input file
# SCF done       -181.732122246845          0.000639839809
! CAM-B3LYP def2-SVP def2/J RIJCOSX Grid4 TightSCF
%maxcore 5000
%tddft
    Mode sTDDFT
    Ethresh 5.0
    maxcore 5000
end

%pal
  nprocs 6
  end
* xyz 0 1
   C        3.47147         2.81599         1.16114
   C        3.19205         4.10157         1.51017
   S        2.43165         4.94795         0.21379
   C        2.48599         3.53982        -0.82323
  Cl        1.87670         3.58262        -2.40212
   C        3.07031         2.49404        -0.17490
   C        3.39020         1.09074        -0.47742
   O        3.10747         0.47381        -1.47223
   C        4.04259         0.58160         0.77611
   C        4.07879         1.64812         1.76552
   C        4.62773         1.62055         3.02094
   C        4.60611         2.75902         3.85470
   N        4.59670         3.67238         4.54884
   C        5.27057         0.52093         3.62323
   N        5.81219        -0.32968         4.17218
   C        4.42791        -0.70485         1.00467
   C        4.55576        -1.73617         0.04754
   N        4.67378        -1.61683        -1.23854
   C        4.81443        -2.78958        -1.83308
   C        4.81273        -3.92457        -0.97791
   S        4.64131        -3.43217         0.64930
   N        4.94657        -5.10249        -1.56937
   C        5.06593        -4.95823        -2.86575
   S        5.01310        -3.28058        -3.46473
   C        5.23498        -6.01033        -3.79630
   N        5.29131        -7.35074        -3.50658
   C        5.12559        -7.96627        -2.21133
   C        3.65441        -8.06480        -1.82141
   C        5.47968        -8.12236        -4.66691
   O        5.56054        -9.33553        -4.66004
   C        5.55375        -7.15516        -5.74157
   C        5.39783        -5.87037        -5.16847
   C        5.47656        -4.88697        -6.22122
   O        5.39577        -3.67643        -6.20185
   N        5.67440        -5.65016        -7.38707
   C        5.85071        -5.01419        -8.67106
   C        7.32360        -4.92428        -9.06243
   C        5.72718        -6.99723        -7.11691
   C        5.91595        -7.99545        -8.11192
   C        5.94298        -9.31194        -7.80308
   C        6.12129       -10.39966        -8.72986
   C        6.45227       -10.22569       -10.07265
   C        6.61005       -11.30988       -10.92158
   N        6.93525       -10.99899       -12.28838
   O        7.39507        -9.90031       -12.51393
   O        6.73786       -11.83908       -13.14556
   C        6.43431       -12.63288       -10.46882
   C        6.11490       -12.79147        -9.11323
   C        5.96439       -11.71755        -8.26954
   C        6.59824       -13.78385       -11.32839
   C        5.93398       -14.94293       -11.17178
   C        6.10728       -16.07431       -12.03387
   C        6.30424       -16.09284       -13.37133
   C        6.82436       -17.35071       -14.00653
   O        6.89071       -18.43698       -13.48506
   C        7.26518       -16.92933       -15.33840
   C        7.91306       -17.48498       -16.40218
   S        8.10231       -16.31309       -17.68338
   C        7.29428       -15.08915       -16.77231
   C        6.90996       -15.55655       -15.55526
   C        6.19169       -15.05969       -14.39549
   C        5.39736       -13.94927       -14.40185
   C        5.31742       -13.11234       -15.53679
   N        5.23052       -12.43361       -16.45663
   C        4.54279       -13.54933       -13.35632
   N        3.80224       -13.19751       -12.55331
  Cl        8.49272       -19.06880       -16.56060
   H        3.37391         4.61124         2.43542
   H        4.66796        -1.00579         2.01658
   H        5.67223        -7.38200        -1.46957
   H        5.55841        -8.96686        -2.29308
   H        3.22253        -7.07215        -1.72711
   H        3.56375        -8.57530        -0.86729
   H        3.10197        -8.62461        -2.57238
   H        5.43805        -4.00681        -8.56746
   H        5.27618        -5.55278        -9.42945
   H        7.86858        -4.34228        -8.32334
   H        7.41737        -4.43459       -10.02753
   H        7.77445        -5.91226        -9.12594
   H        6.02509        -7.66136        -9.13282
   H        5.81017        -9.60216        -6.76892
   H        6.59627        -9.24057       -10.48902
   H        6.01279       -13.79069        -8.72035
   H        5.72006       -11.87880        -7.23028
   H        7.28648       -13.69306       -12.15750
   H        5.25434       -15.07814       -10.34097
   H        6.12516       -17.04781       -11.55138
   H        7.17069       -14.11174       -17.19433
*
