# ORCA input file
# SCF done       -191.527953290117          0.000381991650
! CAM-B3LYP def2-SVP def2/J RIJCOSX Grid4 TightSCF
%maxcore 5000
%tddft
    Mode sTDDFT
    Ethresh 5.0
    maxcore 5000
end

%pal
  nprocs 6
  end
* xyz 0 1
   C       -0.09217         2.33021        -4.16055
   C       -1.18946         1.66792        -3.61589
   C       -1.02399         0.62347        -2.63335
   N       -2.11017         0.13509        -2.00666
   C       -3.29938         0.51244        -2.39165
   C       -3.45721         1.40740        -3.51450
   N       -2.42582         1.98475        -4.05467
   C       -4.76748         1.63175        -3.99841
   N       -5.86142         1.72618        -4.32729
   C       -4.44214         0.06653        -1.68765
   N       -5.39914        -0.29237        -1.16826
   C        0.25603         0.15285        -2.26387
   C        1.35560         0.83714        -2.81020
   C        1.17198         1.93344        -3.74638
   N        2.34977         2.43347        -4.14787
   S        3.52493         1.61744        -3.44167
   N        2.64735         0.58362        -2.59891
   C        0.41739        -0.94523        -1.35318
   N        1.40589        -1.02742        -0.48867
   C        1.15708        -2.12389         0.25967
   C       -0.09749        -2.77829        -0.15617
   C       -0.37211        -3.96843         0.67555
   O       -1.31796        -4.71757         0.61934
   C        0.78678        -3.98522         1.58766
   C        1.69000        -2.84180         1.30012
   N        2.75980        -2.86121         2.13124
   C        2.58705        -3.91355         2.89080
   C        1.37708        -4.66429         2.60164
   C       -0.56110        -2.05835        -1.21921
   C       -1.67814        -2.22984        -2.08346
   C       -2.87250        -2.78646        -1.73599
   C       -3.96596        -2.63384        -2.61954
   N       -3.80994        -2.01110        -3.79203
   C       -5.04319        -1.82508        -4.28309
   C       -6.07379        -2.34127        -3.36918
   C       -7.41182        -1.94692        -3.85493
   O       -8.49817        -2.16108        -3.35417
   C       -7.11103        -1.18350        -5.07247
   C       -5.65659        -1.16652        -5.32388
   N       -5.36665        -0.43468        -6.42238
   C       -6.52378         0.02463        -6.84278
   C       -7.65061        -0.39041        -6.03635
   C       -5.39210        -2.88249        -2.30126
   C       -5.87384        -3.40206        -1.06762
   C       -7.19128        -3.33329        -0.75779
   C       -7.75826        -3.66590         0.49848
   N       -7.21584        -4.47297         1.39394
   C       -8.13540        -4.61680         2.36750
   C       -9.36347        -3.85065         2.06460
   C      -10.36436        -4.02633         3.13322
   O      -11.47319        -3.55057         3.21456
   C       -9.66931        -4.93154         4.07003
   C       -8.31763        -5.26338         3.56403
   N       -7.67363        -6.08553         4.42894
   C       -8.51544        -6.27425         5.41412
   C       -9.77893        -5.57904         5.25724
   C       -9.12002        -3.19963         0.89061
   C       -9.90647        -2.29734         0.11144
   C       -9.36072        -1.26006        -0.56626
   C      -10.02828        -0.46515        -1.54707
   C       -9.37452         0.66335        -2.10136
   C       -9.94080         1.40222        -3.20899
   N       -9.28423         2.47134        -3.70924
   C       -8.16009         2.83786        -3.17013
   C       -7.60582         2.11335        -2.05078
   N       -8.21077         1.06191        -1.56880
   C       -6.38677         2.56265        -1.49104
   N       -5.38921         2.97134        -1.09979
   C       -7.47182         3.97454        -3.66908
   N       -6.90188         4.90067        -4.02714
   C      -11.15730         1.04367        -3.77374
   C      -11.82711        -0.04191        -3.22412
   C      -11.27775        -0.79178        -2.11095
   N      -12.08743        -1.79381        -1.75644
   S      -13.37530        -1.79144        -2.70387
   N      -13.00842        -0.53576        -3.61976
   H       -0.23380         3.10728        -4.89285
   H        3.30723        -4.15777         3.65236
   H        1.05964        -5.55392         3.10829
   H       -1.56747        -1.90394        -3.11038
   H       -3.02700        -3.20908        -0.75550
   H       -6.57251         0.65349        -7.71399
   H       -8.67216        -0.10901        -6.20038
   H       -5.16671        -3.77743        -0.34259
   H       -7.88386        -2.94776        -1.49354
   H       -8.24663        -6.90346         6.24499
   H      -10.59428        -5.60341         5.95272
   H      -10.97159        -2.47966         0.06745
   H       -8.32652        -0.98615        -0.39942
   H      -11.55998         1.59676        -4.60530
*
