# ORCA input file
# SCF done       -167.937634202605          0.000762057992
! CAM-B3LYP def2-SVP def2/J RIJCOSX Grid4 TightSCF
%maxcore 5000
%tddft
    Mode sTDDFT
    Ethresh 5.0
    maxcore 5000
end

%pal
  nprocs 6
  end
* xyz 0 1
   C       -1.50963         0.39527        -3.36033
   C       -0.71735        -0.65249        -3.74425
   C       -0.74454        -1.86222        -3.04630
   C       -1.55988        -2.06482        -1.94605
   C       -2.40345        -0.98669        -1.53378
   N       -3.24276        -1.12422        -0.49043
   C       -3.99093        -0.10688        -0.15829
   C       -3.93761         1.11308        -0.86019
   N       -3.14703         1.28006        -1.88408
   C       -2.36472         0.24319        -2.25226
   C       -1.55465        -3.32711        -1.25152
   C       -2.13542        -3.65416        -0.04602
   C       -1.91494        -4.98835         0.30667
   C       -1.15775        -5.68775        -0.64568
   S       -0.71200        -4.70469        -1.96352
   C       -1.00062        -7.02790        -0.20410
   C       -1.65594        -7.17237         1.02875
   C       -2.25120        -5.89301         1.39183
   C       -2.97496        -5.61072         2.51281
   C       -3.23340        -6.58516         3.49972
   N       -3.44660        -7.37492         4.30337
   C       -3.51459        -4.33132         2.76443
   N       -3.96200        -3.29861         2.98375
   C       -1.56981        -8.46676         1.54167
   C       -0.85799        -9.30742         0.70625
   S       -0.27892        -8.48195        -0.73445
   C       -0.58993       -10.68790         0.88737
   C        0.07779       -11.53699         0.02459
   C        0.13077       -12.84208         0.51443
   C       -0.49724       -12.98447         1.76277
   S       -1.15358       -11.51433         2.33379
   C       -0.40763       -14.34244         2.16185
   C        0.27187       -15.05918         1.16301
   C        0.64060       -14.13926         0.09853
   C        1.32076       -14.43092        -1.04709
   C        1.76655       -15.73631        -1.34282
   N        2.13161       -16.79575        -1.58643
   C        1.62426       -13.44582        -2.01018
   N        1.87299       -12.64748        -2.79492
   C        0.39197       -16.41813         1.45489
   C       -0.18586       -16.73882         2.66901
   S       -0.88762       -15.33646         3.46540
   C       -0.27326       -18.01759         3.27548
   C       -0.79212       -18.33021         4.51816
   C       -0.73613       -19.69969         4.77718
   C       -0.17473       -20.43386         3.72061
   S        0.29640       -19.44053         2.41355
   C       -0.18501       -21.80982         4.07033
   C       -0.74895       -21.94245         5.34864
   C       -1.10602       -20.62380         5.84107
   C       -1.66341       -20.31142         7.04603
   C       -1.97882       -21.29058         8.01203
   N       -2.24072       -22.07244         8.80884
   C       -1.95801       -18.98062         7.41001
   N       -2.19787       -17.89895         7.70631
   C       -0.82062       -23.27016         5.77751
   C       -0.32206       -24.15246         4.84407
   S        0.25677       -23.31306         3.40197
   C       -0.23657       -25.58900         4.90994
   C        0.34103       -26.30708         3.87636
   C        0.43948       -27.70015         3.89476
   C       -0.03983       -28.42164         4.95421
   C       -0.63808       -27.74490         6.03407
   N       -1.10871       -28.46575         7.07398
   C       -1.66119       -27.81992         8.06338
   C       -1.77197       -26.41603         8.05879
   N       -1.32496       -25.69502         7.06612
   C       -0.74484       -26.32375         6.02702
   H       -1.50590         1.34149        -3.87687
   H       -0.05686        -0.55353        -4.59252
   H       -0.09973        -2.66527        -3.37491
   H       -4.65407        -0.25254         0.68358
   H       -4.55534         1.95495        -0.57802
   H       -2.69502        -2.93938         0.52771
   H       -2.00113        -8.79711         2.46965
   H        0.49257       -11.20779        -0.91125
   H        0.87071       -17.14808         0.82703
   H       -1.18717       -17.58714         5.18755
   H       -1.21758       -23.60502         6.71767
   H        0.73172       -25.77226         3.02199
   H        0.90101       -28.20234         3.05788
   H        0.02219       -29.49705         4.99623
   H       -2.03189       -28.41387         8.88784
   H       -2.23148       -25.87618         8.87557
*
