# ORCA input file
# SCF done       -232.096974147400          0.000903615012
! CAM-B3LYP def2-SVP def2/J RIJCOSX Grid4 TightSCF
%maxcore 5000
%tddft
    Mode sTDDFT
    Ethresh 5.0
    maxcore 5000
end

%pal
  nprocs 6
  end
* xyz 0 1
   C        0.36849        -3.79982         2.72061
   C       -0.82370        -3.85398         3.38716
   F       -1.42753        -5.04261         3.56819
   C       -1.45228        -2.70997         3.89806
   C       -0.85298        -1.49349         3.72565
   C        0.37775        -1.37945         3.04688
   C        0.99924        -2.55456         2.53179
   C        2.22849        -2.46474         1.83834
   C        2.81554        -1.23968         1.66997
   C        2.20033        -0.07141         2.20545
   C        1.01025        -0.12851         2.87180
   C        3.05652         1.09879         1.93254
   O        2.83391         2.26002         2.18583
   C        4.30041         0.54151         1.32729
   C        4.04262        -0.84408         0.98358
   C        4.66888        -1.57390         0.00899
   C        5.70714        -1.08013        -0.80930
   N        6.51750        -0.72764        -1.54107
   C        4.29343        -2.88586        -0.34777
   N        4.04187        -3.96144        -0.66026
   C        5.41539         1.31003         1.27065
   C        6.78119         0.90868         1.07120
   C        7.24673        -0.34400         1.50634
   C        8.55848        -0.68882         1.30045
   C        9.43693         0.22066         0.67897
   C        8.99395         1.47037         0.26831
   C        7.67498         1.81014         0.47811
   C       10.75666        -0.36522         0.63786
   C       10.69732        -1.63988         1.22545
   C        9.28269        -1.96973         1.65299
   C        9.20181        -2.28770         3.15396
   C        9.83544        -1.19916         4.01352
   C        8.79253        -3.14860         0.77810
   C        7.45428        -3.75795         1.17346
   C       11.82752        -2.40910         1.34963
   C       13.05950        -1.90880         0.90005
   C       13.09944        -0.63349         0.31469
   C       11.96494         0.13679         0.17291
   C       14.29689        -2.63465         1.04508
   C       14.43211        -3.91736         1.44215
   C       15.68193        -4.57399         1.62868
   C       16.96486        -4.06357         1.54268
   C       17.93468        -5.01683         1.85089
   C       17.39045        -6.27288         2.16644
   S       15.68514        -6.27203         2.08502
   C       18.45134        -7.15303         2.50022
   C       19.66360        -6.45134         2.39508
   C       19.38453        -5.09332         1.96099
   C       20.28242        -4.10295         1.69751
   C       21.68019        -4.28860         1.75803
   N       22.81978        -4.41454         1.76076
   C       19.87068        -2.81126         1.30630
   N       19.53798        -1.76084         0.98867
   C       20.76648        -7.21097         2.78089
   C       20.40609        -8.48683         3.16953
   S       18.67630        -8.76286         3.02572
   C       21.29422        -9.47996         3.69269
   C       22.39489        -9.10495         4.42237
   C       23.35903        -9.98176         4.91022
   C       23.30609       -11.41383         4.61864
   C       22.27559       -12.00755         3.97362
   S       20.92070       -11.15614         3.35240
   C       24.51318       -11.94416         5.15471
   C       25.27320       -10.92266         5.73138
   C       26.47132       -11.41481         6.29344
   C       26.59123       -12.75834         6.12358
   S       25.26337       -13.48391         5.28745
   C       24.54579        -9.68293         5.61094
   C       24.86576        -8.39370         6.07568
   C       26.10121        -7.93093         6.43458
   C       26.38515        -6.65077         6.94012
   C       25.62046        -5.51544         7.09276
   C       26.08093        -4.52858         8.10572
   O       27.16491        -4.49461         8.64638
   C       24.92533        -3.64294         8.35278
   C       24.78510        -2.64163         9.26810
   C       23.55669        -1.94563         9.34555
   C       22.49472        -2.30752         8.46767
   C       21.27001        -1.61814         8.55580
   C       21.12754        -0.61762         9.47636
   C       22.16025        -0.24435        10.34602
   C       23.35578        -0.90465        10.27423
   F       19.95546         0.04106         9.56233
   C       22.67512        -3.34259         7.51967
   C       23.87430        -3.99749         7.46111
   C       24.35727        -5.06115         6.57895
   C       23.77586        -5.37402         5.36903
   C       24.40711        -6.15668         4.38328
   N       24.88526        -6.79581         3.55754
   C       22.49742        -4.94970         4.97395
   N       21.42770        -4.71894         4.61731
   H        0.82129        -4.70078         2.33695
   H       -2.39293        -2.81444         4.41507
   H       -1.31745        -0.59798         4.11032
   H        2.68097        -3.37028         1.46567
   H        0.55682         0.77030         3.26209
   H        5.24951         2.36695         1.45864
   H        6.57230        -0.99601         2.04201
   H        9.67205         2.16765        -0.19929
   H        7.30653         2.77359         0.15834
   H        9.70534        -3.23841         3.34081
   H        8.15477        -2.39816         3.43874
   H       10.89464        -1.09546         3.78954
   H        9.72942        -1.44565         5.06751
   H        9.35288        -0.24055         3.83430
   H        9.55314        -3.93201         0.81007
   H        8.72989        -2.79069        -0.25281
   H        7.50423        -4.22896         2.15213
   H        7.17373        -4.51666         0.44610
   H        6.66951        -3.00759         1.18660
   H       11.77566        -3.38047         1.81684
   H       14.04910        -0.25199        -0.03175
   H       12.01860         1.11441        -0.28148
   H       15.18869        -2.07099         0.80631
   H       13.56006        -4.52285         1.64610
   H       17.17742        -3.04305         1.28485
   H       21.78475        -6.86907         2.75341
   H       22.50923        -8.04918         4.61353
   H       22.23408       -13.07012         3.79365
   H       27.20885       -10.82304         6.80329
   H       27.39637       -13.38970         6.44514
   H       24.02200        -7.72581         6.17601
   H       26.94139        -8.60603         6.36024
   H       27.36976        -6.54299         7.38891
   H       25.60007        -2.38159         9.92688
   H       20.45391        -1.87615         7.89880
   H       21.99061         0.55357        11.05146
   H       24.16667        -0.63499        10.93414
   H       21.85161        -3.59534         6.87059
*
