# ORCA input file
# SCF done       -255.048851169708          0.000727422331
! CAM-B3LYP def2-SVP def2/J RIJCOSX Grid4 TightSCF
%maxcore 5000
%tddft
    Mode sTDDFT
    Ethresh 5.0
    maxcore 5000
end

%pal
  nprocs 6
  end
* xyz 0 1
   C       -0.24992        -2.88603         1.77112
   C       -1.46405        -2.75170         1.16973
   C       -1.73889        -1.40427         0.86640
   C       -0.70399        -0.54716         1.25544
   S        0.59092        -1.38587         1.98479
   C       -1.06639         0.78867         0.91333
   C       -2.32984         0.76441         0.31066
   C       -2.79599        -0.61569         0.25889
   C       -3.97699        -1.06479        -0.25485
   C       -4.93080        -0.19386        -0.82267
   N       -5.71103         0.50741        -1.28536
   C       -4.32576        -2.43178        -0.25366
   N       -4.61308        -3.54189        -0.25631
   C       -2.77914         2.03414        -0.06109
   C       -1.86521         3.01748         0.25592
   S       -0.42589         2.36699         1.02377
   C       -1.98953         4.41609         0.02939
   C       -1.09783         5.40134         0.34510
   C       -1.53510         6.69933        -0.01040
   C       -0.85843         7.92594         0.16191
   C        0.49042         8.00627         0.68316
   C        1.02162         8.96793         1.49475
   C        2.39301         8.76470         1.75997
   C        2.93078         7.66651         1.15511
   S        1.71523         6.84718         0.23493
   C        4.32405         7.15738         1.21183
  Cl        3.29794         9.82690         2.76885
   C       -1.55358         9.07233        -0.21243
   C       -2.85054         9.04239        -0.77927
   C       -3.49944         7.81293        -1.01468
   C       -2.82903         6.67301        -0.59002
   S       -3.43526         5.04720        -0.72855
   C       -4.78225         7.76732        -1.68361
   C       -5.19264         8.51244        -2.75322
   C       -6.51446         8.21748        -3.14900
   C       -7.12637         7.25736        -2.39516
   S       -6.04819         6.68746        -1.16696
   C       -8.50048         6.71173        -2.52122
  Cl       -7.27469         9.01881        -4.47018
   C       -3.35629        10.33775        -1.03306
   C       -2.48140        11.34268        -0.72971
   S       -0.97255        10.71077        -0.08828
   C       -2.64825        12.75180        -0.84029
   S       -1.36344        13.80136        -0.32155
   C       -2.27091        15.22816        -0.71349
   C       -3.51505        14.88026        -1.22841
   C       -3.72655        13.49458        -1.30877
   S       -5.17720        12.72914        -1.94842
   C       -6.31222        13.95841        -2.52241
   O       -7.32107        13.55191        -3.02735
   C       -6.08877        15.44796        -2.39064
   O       -6.93777        16.20785        -2.76722
   S       -4.62957        16.15793        -1.70092
   C       -1.77981        16.54039        -0.51322
   C       -0.51416        16.83691        -0.13006
   C       -0.03046        18.15232         0.08272
   C       -0.73273        19.34643         0.11415
   C        0.09767        20.43920         0.34949
   C        1.45211        20.08366         0.48791
   S        1.69163        18.40077         0.35127
   C        2.20926        21.26421         0.70379
   C        1.33147        22.36093         0.71521
   C       -0.02318        21.88107         0.50051
   C       -1.16566        22.62547         0.46220
   C       -1.15449        24.02498         0.63836
   N       -1.15084        25.16289         0.78143
   C       -2.43277        22.04206         0.25193
   N       -3.46366        21.56977         0.08284
   C        1.98275        23.57901         0.91064
   C        3.34887        23.41865         1.04193
   S        3.83570        21.73740         0.92781
   C        4.31126        24.45053         1.23270
   C        4.05774        25.77086         1.47512
   C        5.22451        26.56454         1.58633
   C        5.31215        27.94284         1.86515
   C        4.14315        28.78548         2.00733
   C        3.95785        29.82363         2.87583
   C        2.70960        30.46053         2.70868
   C        1.93435        29.93756         1.71462
   S        2.75700        28.61591         0.96094
   C        0.58327        30.35549         1.26475
  Cl        2.21889        31.78827         3.68913
   C        6.59734        28.46789         1.98374
   C        7.77388        27.69718         1.82787
   C        7.68543        26.32074         1.54912
   C        6.40321        25.79410         1.43294
   S        6.02750        24.11823         1.13746
   C        8.85068        25.47206         1.39232
   C        9.03094        24.46018         0.49406
   C       10.26812        23.79928         0.65634
   C       11.03691        24.27927         1.67548
   S       10.22452        25.59266         2.45852
   C       12.37691        23.82690         2.12690
  Cl       10.75002        22.49449        -0.35927
   C        8.94498        28.50375         1.92991
   C        8.67058        29.80415         2.15746
   S        6.98075        30.14414         2.26813
   H        0.21871        -3.78759         2.11131
   H       -2.12032        -3.57603         0.95867
   H       -3.71936         2.24883        -0.53639
   H       -0.16338         5.19311         0.83311
   H        0.45911         9.77486         1.92545
   H        4.91236         7.77696         1.88396
   H        4.78110         7.17710         0.22269
   H        4.34261         6.12827         1.56866
   H       -4.56779         9.21270        -3.27583
   H       -8.98268         7.13471        -3.39885
   H       -9.09374         6.95758        -1.64066
   H       -8.47441         5.62705        -2.61533
   H       -4.35144        10.50194        -1.39462
   H       -2.48924        17.33319        -0.70381
   H        0.19348        16.02987         0.01134
   H       -1.79712        19.40668        -0.01681
   H        1.49758        24.53645         0.94190
   H        3.06387        26.15760         1.59232
   H        4.66091        30.10833         3.63604
   H        0.17035        31.07655         1.96588
   H       -0.08180        29.49577         1.20050
   H        0.63240        30.81587         0.27763
   H        8.33231        24.20919        -0.28215
   H       12.70722        22.99348         1.51200
   H       12.34438        23.50815         3.16827
   H       13.10285        24.63556         2.04670
   H        9.94292        28.12183         1.82406
   H        9.36529        30.61275         2.27365
*
