# ORCA input file
# SCF done       -189.280354465614          0.000463608252
! CAM-B3LYP def2-SVP def2/J RIJCOSX Grid4 TightSCF
%maxcore 5000
%tddft
    Mode sTDDFT
    Ethresh 5.0
    maxcore 5000
end

%pal
  nprocs 6
  end
* xyz 0 1
   C       -2.93317         5.55074        -2.29045
   C       -1.75891         5.95233        -2.86584
   C       -1.60733         7.16742        -3.56631
   N       -1.44168         8.13451        -4.16177
   C       -0.53976         5.25098        -2.75383
   N        0.49325         4.76078        -2.65250
   C       -4.13721         6.36238        -2.16115
   C       -4.95008         5.80958        -1.12818
   C       -6.12989         6.38711        -0.75655
   C       -6.56268         7.55853        -1.41706
   C       -5.76294         8.10767        -2.46111
   C       -4.54337         7.49142        -2.82222
   C       -6.20963         9.27366        -3.11624
   C       -7.38672         9.87121        -2.75702
   C       -8.17275         9.33029        -1.72829
   C       -7.76936         8.19909        -1.07255
   C       -4.31706         4.58457        -0.60565
   O       -4.69413         3.88037         0.29935
   C       -3.13291         4.35341        -1.48883
   C       -2.53943         3.14304        -1.52385
   C       -1.65095         2.64164        -2.53759
   C       -1.73761         2.81113        -3.89496
   O       -0.77269         2.13076        -4.52333
   C       -0.02076         1.53968        -3.59203
   C       -0.50230         1.79754        -2.33665
   C       -0.02776         1.38150        -1.00635
   O       -0.78375         1.36403        -0.04872
   C        1.37075         1.01273        -0.83337
   C        1.90188         0.62662         0.38099
   C        3.26280         0.34302         0.33186
   C        3.80089         0.50913        -0.92945
   S        2.59679         1.04238        -2.05972
   C        5.14048         0.26296        -1.33661
   C        5.66249         0.29819        -2.61378
   C        7.01484        -0.05199        -2.63493
   C        7.52378        -0.34186        -1.36026
   S        6.34450        -0.19418        -0.13873
   C        8.89371        -0.70638        -1.48179
   C        9.23941        -0.65531        -2.83989
   C        8.07975        -0.23652        -3.61005
   C        8.00227        -0.06411        -4.96129
   C        6.81056         0.33387        -5.60211
   N        5.84152         0.65023        -6.12735
   C        9.11092        -0.28119        -5.80530
   N       10.01189        -0.45987        -6.49224
   C       10.56581        -1.02906        -3.06232
   C       11.22097        -1.35227        -1.88932
   S       10.19335        -1.17798        -0.48355
   C       12.58465        -1.79961        -1.81742
   C       13.46005        -1.83957        -2.87691
   O       14.64695        -2.33837        -2.50560
   C       14.57060        -2.64938        -1.21694
   C       13.32742        -2.35144        -0.70995
   C       12.88859        -2.46874         0.67759
   O       11.99581        -1.77320         1.13932
   C       13.55622        -3.45092         1.53416
   C       13.47579        -3.43616         2.91492
   C       14.12623        -4.51029         3.50012
   C       14.69519        -5.38260         2.57617
   S       14.42094        -4.82627         0.95201
   C       15.38068        -6.55856         2.95875
   C       15.97129        -7.51716         2.19797
   C       16.07852        -7.58726         0.74866
   O       15.66560        -6.77065        -0.05107
   N       16.73838        -8.73991         0.36151
   C       17.15884        -9.56163         1.36310
   C       17.82653       -10.75147         1.24607
   C       18.21903       -11.36827         0.04393
   N       18.56620       -11.91992        -0.90072
   C       18.17843       -11.46712         2.41131
   N       18.46526       -12.05354         3.35366
   S       16.74009        -8.91469         2.93328
   C       16.93868        -9.01340        -1.04209
   H       -6.72612         5.95516         0.03343
   H       -3.96205         7.92258        -3.62239
   H       -5.59951         9.68830        -3.90522
   H       -7.71901        10.76508        -3.26331
   H       -9.09929         9.81452        -1.45834
   H       -8.36994         7.77796        -0.27961
   H       -2.79202         2.45009        -0.72866
   H       -2.45587         3.33032        -4.49942
   H        0.79631         0.94015        -3.94076
   H        1.29307         0.55813         1.26452
   H        3.84706         0.02155         1.17585
   H        5.07251         0.55887        -3.47391
   H       11.03162        -1.07696        -4.02861
   H       13.35326        -1.53680        -3.89873
   H       15.45496        -3.03583        -0.75065
   H       12.96425        -2.65761         3.45171
   H       14.18687        -4.67436         4.56128
   H       15.42552        -6.71018         4.03166
   H       16.48766        -8.18680        -1.59153
   H       16.45577        -9.94872        -1.32567
   H       18.00153        -9.07301        -1.27712
*
