# ORCA input file
# SCF done       -258.493758042729          0.000610664999
! CAM-B3LYP def2-SVP def2/J RIJCOSX Grid4 TightSCF
%maxcore 5000
%tddft
    Mode sTDDFT
    Ethresh 5.0
    maxcore 5000
end

%pal
  nprocs 6
  end
* xyz 0 1
   C       -0.49194         0.36331        -1.72693
   C       -1.02280         1.07518        -0.68474
   C       -0.59919         0.93487         0.65221
   N       -0.27009         0.86768         1.74984
   C       -2.11039         1.96278        -0.81939
   N       -3.03231         2.64565        -0.85814
   C        0.43572        -0.75544        -1.60881
   C        0.36124        -1.53324        -2.80198
   C        1.09614        -2.67229        -2.96206
   C        1.96327        -3.08467        -1.92547
   C        2.05579        -2.30186        -0.73824
   C        1.27538        -1.13179        -0.59504
   C        2.93296        -2.71955         0.28331
   C        3.68080        -3.85660         0.14261
   C        3.58712        -4.62795        -1.02552
   C        2.74636        -4.25050        -2.03700
   C       -0.57255        -0.89255        -3.74569
   O       -0.93190        -1.29101        -4.82964
   C       -0.94121         0.40412        -3.10691
   C       -1.48884         1.39174        -3.85184
   C       -1.58549         2.79600        -3.54539
   C       -2.67022         3.52807        -4.04960
   C       -2.78024         4.86462        -3.75460
   C       -1.81058         5.49494        -2.95283
   C       -0.70481         4.79103        -2.49488
   C       -0.59996         3.44952        -2.79319
   C       -2.21234         6.86615        -2.73259
   C       -3.42913         7.08463        -3.40091
   C       -3.86493         5.84073        -4.14476
   C       -3.83504         6.17851        -5.65423
   C       -4.03554         5.00614        -6.60526
   C       -5.25273         5.35781        -3.69487
   C       -5.32978         5.12918        -2.18946
   C       -4.04511         8.30992        -3.35381
   C       -3.46105         9.35294        -2.61861
   C       -2.26038         9.11005        -1.93516
   C       -1.62856         7.88495        -1.99181
   C       -4.05511        10.66613        -2.53854
   C       -5.02478        11.13160        -3.35217
   C       -5.62175        12.42176        -3.27204
   C       -5.44257        13.43425        -2.34688
   C       -6.24833        14.54205        -2.61636
   C       -7.04402        14.37585        -3.76032
   S       -6.80294        12.85827        -4.49895
   C       -7.83929        15.53737        -3.93316
   C       -7.55277        16.43757        -2.89433
   C       -6.53687        15.84777        -2.03756
   C       -5.97120        16.39853        -0.92549
   C       -6.33218        17.67787        -0.45256
   N       -6.61849        18.71878        -0.06656
   C       -4.98295        15.72594        -0.17673
   N       -4.17819        15.18158         0.43242
   C       -8.31572        17.60623        -2.96618
   C       -9.16899        17.60013        -4.04991
   S       -9.02825        16.12836        -5.00344
   C      -10.12122        18.58572        -4.42543
   C      -10.91203        18.58809        -5.54007
   C      -11.80689        19.67981        -5.60236
   C      -12.73069        19.98769        -6.62186
   C      -12.92322        19.15094        -7.78883
   C      -13.17392        19.55307        -9.06966
   C      -13.37408        18.47138        -9.95458
   C      -13.29494        17.24082        -9.37095
   S      -12.95257        17.40977        -7.68260
   C      -13.46055        15.90207        -9.99045
  Cl      -13.69098        18.70394       -11.63061
   C      -13.48542        21.14367        -6.44436
   C      -13.35891        21.99184        -5.31178
   C      -12.40475        21.70232        -4.30906
   C      -11.66617        20.53912        -4.48136
   S      -10.43278        19.96188        -3.39105
   C      -12.20377        22.56349        -3.16411
   C      -11.94259        22.19987        -1.87231
   C      -11.76106        23.30962        -1.02158
   C      -11.86084        24.52138        -1.64419
   S      -12.20202        24.29901        -3.32295
   C      -11.72725        25.88033        -1.06267
  Cl      -11.43837        23.13395         0.66010
   C      -14.31504        23.02583        -5.31004
   C      -15.15395        23.00827        -6.39585
   S      -14.74758        21.69539        -7.50004
   C      -16.23554        23.83712        -6.77390
   C      -16.92486        24.78585        -6.07474
   C      -18.05009        25.52340        -6.63490
   C      -18.34222        25.68819        -7.96301
   C      -19.44250        26.43293        -8.43811
   N      -20.32198        27.01804        -8.88770
   C      -17.57589        25.19783        -9.04229
   N      -17.00018        24.85990        -9.97677
   C      -18.77686        26.13734        -5.53142
   C      -18.04203        25.91369        -4.33392
   C      -16.83111        25.12979        -4.63248
   O      -15.96410        24.84109        -3.83368
   C      -18.47003        26.38127        -3.12501
   C      -19.68485        27.09876        -3.05601
   C      -20.43289        27.31757        -4.24880
   C      -19.95887        26.82827        -5.48773
   C      -21.64824        28.02720        -4.16666
   C      -22.10376        28.49930        -2.96586
   C      -21.36569        28.28427        -1.79236
   C      -20.18172        27.59950        -1.83666
   H        1.01888        -3.25181        -3.87003
   H        1.36893        -0.55269         0.31065
   H        2.99909        -2.12433         1.18223
   H        4.34883        -4.16865         0.93136
   H        4.18468        -5.52228        -1.11995
   H        2.66999        -4.84012        -2.93890
   H       -1.85126         1.08601        -4.82894
   H       -3.42991         3.01115        -4.61531
   H        0.05574         5.28107        -1.90595
   H        0.26566         2.89277        -2.46287
   H       -2.87147         6.64630        -5.87441
   H       -4.61175         6.92374        -5.84025
   H       -3.21272         4.30071        -6.53073
   H       -4.07008         5.37552        -7.62812
   H       -4.96844         4.48647        -6.40425
   H       -5.48971         4.42521        -4.20821
   H       -5.99556         6.10230        -3.99102
   H       -4.61138         4.37716        -1.87332
   H       -6.32572         4.78815        -1.91636
   H       -5.12276         6.05032        -1.64885
   H       -4.98720         8.46367        -3.85666
   H       -1.81851         9.91191        -1.36128
   H       -0.70061         7.72224        -1.46464
   H       -3.65250        11.31708        -1.77432
   H       -5.39976        10.51053        -4.15394
   H       -4.76721        13.35870        -1.51515
   H       -8.26712        18.42594        -2.27194
   H      -10.84127        17.82525        -6.29338
   H      -13.18254        20.57796        -9.39070
   H      -13.58126        16.01065       -11.06532
   H      -14.33864        15.39803        -9.58672
   H      -12.59259        15.27523        -9.79013
   H      -11.92024        21.18519        -1.52096
   H      -11.52044        25.80504         0.00189
   H      -12.64609        26.44772        -1.20744
   H      -10.91664        26.42680        -1.54385
   H      -14.41481        23.75174        -4.52583
   H      -16.59020        23.63222        -7.77802
   H      -17.89110        26.20054        -2.23140
   H      -20.55096        27.00549        -6.37141
   H      -22.21230        28.19158        -5.07302
   H      -23.03606        29.04135        -2.91351
   H      -21.74025        28.66334        -0.85325
   H      -19.60909        27.43016        -0.93643
*
