# ORCA input file
# SCF done       -227.534280749787          0.000378913143
! CAM-B3LYP def2-SVP def2/J RIJCOSX Grid4 TightSCF
%maxcore 5000
%tddft
    Mode sTDDFT
    Ethresh 5.0
    maxcore 5000
end

%pal
  nprocs 6
  end
* xyz 0 1
   C       -6.87420         9.63737        17.12320
   C       -6.88494        10.93322        16.69414
   C       -6.58986        11.29367        15.36229
   C       -6.26652        10.37711        14.38539
   C       -6.24926         9.01556        14.79950
   C       -6.55315         8.65718        16.16555
   N       -6.46190         7.34282        16.25260
   O       -6.12953         6.91181        15.04102
   N       -5.99629         7.89494        14.15184
   C       -5.96337        10.74418        13.02983
   C       -5.59356         9.91445        12.01277
   C       -5.36364        10.58381        10.78627
   C       -4.93420        10.02596         9.56429
   C       -4.78001         8.59420         9.41111
   C       -5.59512         7.60492         9.88191
   C       -5.13116         6.31374         9.55008
   C       -3.96775         6.29772         8.83689
   S       -3.42506         7.91600         8.54940
   C       -3.19646         5.13095         8.33953
  Cl       -5.97659         4.88773        10.01481
   C       -4.67300        10.92119         8.53473
   C       -4.84436        12.32347         8.65551
   C       -5.30309        12.87964         9.86740
   C       -5.55277        11.98270        10.90216
   S       -6.04922        12.41694        12.51309
   C       -5.49473        14.30337        10.05349
   C       -6.48437        14.92594        10.76002
   C       -6.34531        16.33034        10.77515
   C       -5.25541        16.79954        10.10151
   S       -4.37158        15.47783         9.41940
   C       -4.80439        18.20060         9.91176
  Cl       -7.47119        17.35370        11.58222
   C       -4.54577        12.99532         7.44729
   C       -4.15041        12.16223         6.43856
   S       -4.14406        10.48402         6.93361
   C       -3.75089        12.54075         5.12537
   C       -3.49423        13.82102         4.67428
   C       -3.10032        13.83250         3.33549
   C       -3.06599        12.55138         2.76371
   S       -3.50739        11.33377         3.87613
   C       -2.64825        12.67359         1.41106
   C       -2.40643        14.02843         1.13677
   C       -2.68782        14.80373         2.33413
   C       -2.58908        16.15510         2.49026
   C       -2.17280        17.00666         1.44510
   N       -1.83557        17.70600         0.60153
   C       -2.90364        16.79291         3.70859
   N       -3.16075        17.31571         4.69643
   C       -1.97642        14.24914        -0.17417
   C       -1.90125        13.07716        -0.89715
   S       -2.36465        11.67470         0.05566
   C       -1.50695        12.92023        -2.25465
   C       -1.55469        11.78744        -3.01530
   C       -1.08820        11.97128        -4.33885
   C       -1.03679        11.02556        -5.38257
   C       -1.55308         9.67900        -5.24343
   C       -1.04224         8.52503        -5.76438
   C       -1.84879         7.39832        -5.49397
   C       -2.98048         7.66901        -4.78224
   S       -3.05722         9.35978        -4.41871
   C       -4.04799         6.73878        -4.33613
  Cl       -1.42403         5.81763        -6.02949
   C       -0.49227        11.46290        -6.58646
   C       -0.03612        12.78687        -6.80324
   C       -0.11422        13.74025        -5.76828
   C       -0.63125        13.29507        -4.55654
   S       -0.85295        14.28326        -3.13819
   C        0.30490        15.11618        -5.94127
   C        0.96450        15.90567        -5.04219
   C        1.18293        17.21385        -5.52328
   C        0.68754        17.44609        -6.77390
   S       -0.06287        16.01450        -7.38882
   C        0.73073        18.69502        -7.57473
  Cl        2.01027        18.40593        -4.59695
   C        0.46723        12.96450        -8.11484
   C        0.37906        11.84877        -8.89306
   S       -0.32448        10.49814        -8.02511
   C        0.79493        11.70791       -10.26082
   C        0.67517        10.53234       -10.96978
   C        1.07986        10.39479       -12.31447
   C        1.62473        11.42463       -13.02567
   C        1.77034        12.65116       -12.35085
   C        1.36121        12.80234       -10.97340
   N        1.62196        14.04729       -10.62610
   O        2.15159        14.63147       -11.69992
   N        2.25068        13.81620       -12.74463
   H       -7.09724         9.35227        18.13711
   H       -7.12584        11.72350        17.38909
   H       -6.61767        12.34056        15.09677
   H       -5.46343         8.85885        12.15894
   H       -6.51311         7.77979        10.41128
   H       -2.23312         5.06437         8.84516
   H       -3.00849         5.22298         7.27084
   H       -3.75440         4.21692         8.52675
   H       -7.30848        14.41632        11.22325
   H       -4.67883        18.42216         8.85272
   H       -3.84580        18.36578        10.40353
   H       -5.53835        18.88224        10.33436
   H       -4.63737        14.05658         7.31866
   H       -3.57602        14.69104         5.29843
   H       -1.73087        15.20712        -0.59613
   H       -1.91219        10.85076        -2.62825
   H       -0.10912         8.46168        -6.29208
   H       -4.99975         6.99611        -4.80072
   H       -4.17763         6.79149        -3.25584
   H       -3.78521         5.72096        -4.61322
   H        1.32140        15.56784        -4.08719
   H        1.38023        19.41894        -7.08883
   H       -0.26622        19.12637        -7.66775
   H        1.10447        18.49373        -8.57734
   H        0.89064        13.87882        -8.48536
   H        0.24977         9.67250       -10.47272
   H        0.94629         9.43266       -12.78573
   H        1.93534        11.33018       -14.05215
*
