# ORCA input file
# SCF done       -205.486185311553          0.000965860372
! CAM-B3LYP def2-SVP def2/J RIJCOSX Grid4 TightSCF
%maxcore 5000
%tddft
    Mode sTDDFT
    Ethresh 5.0
    maxcore 5000
end

%pal
  nprocs 6
  end
* xyz 0 1
   C        2.49089         4.43164         9.22910
   C        2.50353         4.74192         7.91160
   C        3.36079         4.12790         6.97936
   C        4.30446         3.09413         7.40978
   C        4.43843         2.65397         8.68234
   S        3.50419         3.25310         9.98932
   C        4.99352         2.70234         6.22894
   C        4.52516         3.43168         5.13537
   C        5.19194         3.06192         3.94591
   C        6.12013         2.09233         4.16585
   S        6.22850         1.58249         5.81201
   C        3.49345         4.33654         5.59699
   C        2.73948         5.27344         4.85774
   C        2.83509         5.52810         3.52502
   C        2.06565         6.49497         2.82756
   C        2.23266         6.71344         1.47280
   C        1.53723         7.65031         0.71909
   C        0.53490         8.52378         1.32855
   C        0.19386         8.48766         2.63473
   S        0.89605         7.41213         3.76985
   C        0.06125         9.35178         0.27298
   C        0.71802         9.03681        -0.91740
   C        0.24586         9.82536        -1.99174
   C       -0.71931        10.69540        -1.59426
   S       -1.10290        10.60002         0.08868
   C        1.65420         7.96716        -0.65874
   C        2.52081         7.32727        -1.55785
   C        2.78158         7.71641        -2.84209
   C        3.62800         7.02842        -3.72552
   C        3.98052         7.44042        -5.01199
   C        4.81810         6.53871        -5.64401
   C        5.11617         5.40417        -4.85197
   S        4.36463         5.48042        -3.31383
   C        5.94052         4.53651        -5.58309
   C        6.18431         5.12474        -6.85492
   C        5.49052         6.39410        -6.92789
   C        5.45780         7.26801        -7.97655
   C        4.73302         8.47576        -7.91968
   N        4.14411         9.45914        -7.87260
   C        6.13815         7.02320        -9.18783
   N        6.68045         6.83819       -10.18113
   C        6.97748         4.33632        -7.66592
   C        7.33704         3.13769        -7.04864
   S        6.68399         3.00337        -5.41886
   C        8.09941         2.09675        -7.61472
   C        8.32653         0.88012        -6.91870
   C        9.06988        -0.20990        -7.47829
   N        9.14151        -1.37089        -6.79069
   C        8.60902        -1.44403        -5.61230
   C        7.94641        -0.34268        -5.02796
   N        7.80063         0.76527        -5.68916
   F        7.42559        -0.40879        -3.80282
   F        8.69520        -2.61194        -4.97388
   C        9.67628        -0.12278        -8.75086
   C        9.42878         1.07693        -9.46149
   C        8.66828         2.17119        -8.91079
   N        8.59641         3.19515        -9.76009
   S        9.39760         2.82779       -11.10198
   N        9.87778         1.35333       -10.68437
   C       10.42102        -1.14979        -9.38571
   C       11.07996        -2.23079        -8.88015
   C       11.39468        -3.36057        -9.79926
   O       11.32818        -3.35529       -11.00760
   C       11.74747        -4.49119        -8.91801
   C       11.98665        -5.79418        -9.24418
   C       12.25951        -6.72292        -8.21426
   C       12.26970        -6.27982        -6.85965
   C       12.52432        -7.21545        -5.83804
   C       12.76102        -8.52103        -6.16660
   C       12.76067        -8.97502        -7.49207
   C       12.51203        -8.08080        -8.49613
   F       13.00466        -9.41718        -5.19048
   C       12.03009        -4.91943        -6.55247
   C       11.78231        -4.03723        -7.56832
   C       11.51828        -2.60090        -7.55675
   C       11.85170        -1.74803        -6.53538
   C       12.36323        -2.17010        -5.29244
   N       12.77282        -2.45316        -4.25762
   C       11.77202        -0.34634        -6.62576
   N       11.73070         0.80170        -6.64306
   H        1.82706         4.91272         9.92743
   H        1.81419         5.50034         7.56819
   H        5.14757         1.88986         8.95889
   H        5.01480         3.47119         2.96870
   H        6.76515         1.62999         3.44425
   H        2.01790         5.84606         5.42730
   H        3.54281         4.97915         2.92368
   H        2.97393         6.10074         0.97746
   H       -0.55045         9.14063         3.06133
   H        0.57594         9.76296        -3.01197
   H       -1.24718        11.40731        -2.19824
   H        3.04101         6.45081        -1.19054
   H        2.34258         8.62237        -3.23029
   H        3.62642         8.36172        -5.43802
   H        7.29681         4.57335        -8.66440
   H       10.42594        -1.08538       -10.47059
   H       11.96316        -6.11586       -10.27469
   H       12.53462        -6.90110        -4.80612
   H       12.95513       -10.01707        -7.69100
   H       12.50562        -8.40621        -9.52568
   H       12.03327        -4.61194        -5.51879
*
