# ORCA input file
# SCF done       -185.110310082283          0.000842316547
! CAM-B3LYP def2-SVP def2/J RIJCOSX Grid4 TightSCF
%maxcore 5000
%tddft
    Mode sTDDFT
    Ethresh 5.0
    maxcore 5000
end

%pal
  nprocs 6
  end
* xyz 0 1
   C        0.98541         4.36436         5.30941
   C       -0.22447         3.89763         4.88653
   S       -0.14563         2.35580         4.11193
   C        1.55270         2.32517         4.33539
   C        2.01189         3.45698         4.99511
   C        3.46145         3.34033         5.17985
   O        4.21897         4.09624         5.74235
   C        3.83834         2.07262         4.47192
   C        2.61896         1.39290         4.06400
   C        2.40215         0.09044         3.69334
   C        1.09129        -0.36499         3.42771
   N        0.03270        -0.74707         3.20429
   C        3.33810        -0.95408         3.60473
   N        4.00549        -1.88534         3.51593
   C        5.15624         1.77909         4.34714
   C        5.79736         0.80181         3.54587
   C        5.44689         0.29398         2.30801
   C        6.34115        -0.67900         1.86322
   C        7.37710        -0.92395         2.78843
   S        7.29365         0.09410         4.15021
   C        8.14542        -2.00948         2.33065
   C        7.62281        -2.45025         1.09267
   C        6.47244        -1.61443         0.76273
   C        5.65505        -1.72220        -0.32504
   C        4.54185        -0.87427        -0.49973
   N        3.64118        -0.17832        -0.63992
   C        5.87402        -2.68007        -1.33581
   N        6.06175        -3.45639        -2.15888
   C        8.27179        -3.57355         0.60814
   C        9.25058        -4.04461         1.49378
   S        9.40763        -2.99486         2.89837
   C        9.94913        -5.25767         1.39403
   C       10.54596        -5.91938         2.44528
   C       11.08957        -7.22829         2.46050
   C       11.34596        -7.72175         3.71089
   C       11.01699        -6.82471         4.74508
   S       10.50763        -5.29327         4.07736
   C       10.87383        -6.97653         6.11922
   C       11.18299        -8.01025         7.01987
   C       10.71624        -7.79123         8.28961
   C        9.98497        -6.59065         8.44947
   S       10.00579        -5.70467         6.94446
   C        9.31683        -6.15042         9.57722
   C        8.42740        -5.06968         9.62970
   C        7.87455        -4.33449         8.57425
   C        6.99654        -3.36274         9.00388
   C        6.84426        -3.31253        10.40933
   S        7.80248        -4.50788        11.18586
   C        5.92614        -2.29314        10.71752
   C        5.48606        -1.69820         9.50182
   C        6.14075        -2.35453         8.39458
   C        5.98764        -2.09553         7.06162
   C        6.69962        -2.78742         6.06105
   N        7.29267        -3.33219         5.24359
   C        5.10144        -1.11060         6.58268
   N        4.38832        -0.31893         6.15835
   C        4.57642        -0.67094         9.68780
   C        4.29708        -0.44570        11.02880
   S        5.20091        -1.56496        12.07613
   C        3.47306         0.49078        11.67655
   C        2.65932         1.47730        11.18494
   C        1.91656         2.38460        12.05465
   C        1.85124         2.43091        13.42555
   C        1.05843         3.40549        14.06834
   N        0.41716         4.19331        14.60226
   C        2.50445         1.57952        14.33570
   N        3.00311         0.93117        15.14285
   C        1.21122         3.28950        11.18862
   C        1.45055         2.99497         9.85653
   C        0.77898         3.85361         8.97125
   C        0.04894         4.78060         9.65486
   S        0.15760         4.62891        11.37247
   C        2.35491         1.84099         9.77028
   O        2.73493         1.31012         8.74743
   H        1.13464         5.30455         5.80863
   H       -1.18090         4.37263         4.98855
   H        5.81124         2.40007         4.95257
   H        4.59293         0.64355         1.75566
   H        8.03062        -4.08299        -0.30761
   H        9.91353        -5.76408         0.43844
   H       11.23010        -7.78689         1.55179
   H       11.70389        -8.71679         3.90751
   H       11.73114        -8.88574         6.72001
   H       10.84510        -8.48111         9.10511
   H        9.47823        -6.70242        10.49347
   H        8.06946        -4.53370         7.53923
   H        4.11939        -0.09500         8.90321
   H        3.51036         0.41075        12.75697
   H        0.83647         3.78968         7.90034
   H       -0.56189         5.56316         9.24872
*
