# ORCA input file
# SCF done       -177.274643367889          0.000795134317
! CAM-B3LYP def2-SVP def2/J RIJCOSX Grid4 TightSCF
%maxcore 5000
%tddft
    Mode sTDDFT
    Ethresh 5.0
    maxcore 5000
end

%pal
  nprocs 6
  end
* xyz 0 1
   C       -1.04983         3.15539        -2.05824
   C       -1.81523         3.24360        -0.90302
   C       -1.60579         2.37730         0.16209
   C       -0.61287         1.42310         0.03969
   C        0.15877         1.33412        -1.12537
   C       -0.05171         2.19804        -2.18403
   C        1.14787         0.23524        -1.00399
   O        1.95804        -0.08577        -1.84813
   C        0.92550        -0.35153         0.33038
   C       -0.17622         0.38500         0.99872
   O       -0.61651         0.16816         2.10620
   C        1.52528        -1.37960         0.98978
   C        2.57386        -2.24276         0.60929
   C        3.32777        -2.32830        -0.55267
   C        4.27029        -3.34901        -0.49282
   C        4.23971        -4.05531         0.73154
   S        3.05604        -3.46363         1.79658
   C        5.22718        -5.06380         0.69504
   C        5.88905        -5.00697        -0.54276
   C        5.30707        -3.92647        -1.33127
   C        5.67239        -3.55607        -2.59143
   C        6.70713        -4.21856        -3.28629
   N        7.54850        -4.75816        -3.84876
   C        5.06271        -2.50092        -3.30544
   N        4.59763        -1.65529        -3.92299
   C        6.88644        -5.97146        -0.66974
   C        6.99520        -6.76382         0.46129
   S        5.83301        -6.30399         1.70267
   C        7.88723        -7.84855         0.69309
   C        7.90726        -8.53172         1.88661
   C        8.73731        -9.60780         2.18356
   C        9.78503       -10.02386         1.24048
   C        9.93941        -9.50097         0.00432
   S        8.94633        -8.26344        -0.64882
   C       10.53062       -11.02447         1.92219
   C        9.98999       -11.22797         3.19350
   C       10.68961       -12.21783         3.91796
   C       11.72172       -12.72610         3.19538
   S       11.88531       -12.03491         1.61558
   C        8.84527       -10.37324         3.36329
   C        8.02874       -10.37026         4.51959
   C        6.74856        -9.91398         4.58424
   C        5.95827        -9.85367         5.75533
   C        6.28135       -10.16667         7.06967
   C        5.22218        -9.93401         7.94031
   C        4.07479        -9.43787         7.29373
   S        4.30734        -9.26281         5.60990
   C        3.06749        -9.22419         8.25849
   C        3.57353        -9.58222         9.53061
   C        4.93969       -10.04631         9.36750
   C        5.79435       -10.50363        10.32665
   C        5.45832       -10.60228        11.69463
   N        5.22981       -10.70488        12.81283
   C        7.10135       -10.92997        10.00835
   N        8.16358       -11.27680         9.74928
   C        2.65231        -9.39129        10.55400
   C        1.44344        -8.89536        10.08593
   S        1.46458        -8.66687         8.32938
   C        0.24496        -8.55871        10.74654
   C       -0.08880        -8.57829        12.06652
   C       -1.45626        -8.16729        12.46740
   O       -2.34729        -7.81359        11.72626
   C       -1.49971        -8.27843        13.94223
   C       -2.53623        -8.01451        14.81808
   C       -2.30903        -8.20116        16.17550
   C       -1.07654        -8.63965        16.64089
   C       -0.03355        -8.90570        15.76323
   C       -0.25732        -8.72163        14.41149
   C        0.67507        -8.93153        13.27620
   O        1.82444        -9.31069        13.36479
   H       -1.23480         3.84249        -2.87065
   H       -2.58508         3.99781        -0.83285
   H       -2.19576         2.43830         1.06366
   H        0.54865         2.12067        -3.07744
   H        1.12068        -1.56298         1.98302
   H        3.17161        -1.66220        -1.38394
   H        7.51242        -6.10282        -1.53375
   H        7.24093        -8.16662         2.65532
   H       10.70682        -9.83629        -0.67540
   H       10.45041       -12.53752         4.91574
   H       12.41980       -13.48435         3.49183
   H        8.47046       -10.80970         5.40399
   H        6.25157        -9.59103         3.68134
   H        7.24505       -10.53893         7.36291
   H        2.82134        -9.58845        11.59878
   H       -0.55759        -8.22174        10.09368
   H       -3.49067        -7.67360        14.44717
   H       -3.10246        -8.00213        16.88078
   H       -0.92801        -8.77544        17.70202
   H        0.92813        -9.24706        16.11449
*
