# ORCA input file
# SCF done       -171.352915374787          0.000384248449
! CAM-B3LYP def2-SVP def2/J RIJCOSX Grid4 TightSCF
%maxcore 5000
%tddft
    Mode sTDDFT
    Ethresh 5.0
    maxcore 5000
end

%pal
  nprocs 6
  end
* xyz 0 1
   C        7.16359         7.79076         0.96033
   C        6.52031         8.98940         0.82009
   F        7.19253        10.13161         1.03379
   C        5.16872         9.08058         0.45654
   C        4.46331         7.93146         0.23271
   C        5.07608         6.66762         0.36045
   C        6.45167         6.59642         0.73294
   C        7.08415         5.33999         0.87365
   C        6.36629         4.19540         0.64655
   C        4.99441         4.27366         0.26134
   C        4.35805         5.47485         0.12417
   C        4.46261         2.91661         0.04458
   O        3.33416         2.58421        -0.22543
   C        5.65433         2.01907         0.16256
   C        6.73874         2.79135         0.75296
   C        7.79080         2.29489         1.46901
   C        7.96323         0.92509         1.76287
   N        8.12108        -0.16902         2.07117
   C        8.81011         3.08781         2.02726
   N        9.69038         3.67446         2.47375
   C        5.65787         0.79654        -0.40625
   C        6.84767         0.01638        -0.67082
   N        7.94859         0.71105        -0.97601
   N        9.08257         0.12699        -1.10638
   C        9.20310        -1.19250        -0.97838
   C        8.07734        -2.01335        -0.81303
   C        6.86377        -1.38819        -0.64391
   C       10.56723        -1.71083        -0.99550
   N       10.74942        -3.01550        -1.17829
   N       11.93623        -3.51388        -1.17214
   C       13.01809        -2.75583        -0.97187
   C       12.90967        -1.36929        -0.75529
   C       11.64605        -0.83696        -0.77608
   C       14.26857        -3.48468        -0.98287
   C       15.49536        -2.89346        -0.83544
   C       16.70970        -3.58070        -0.82125
   C       16.74494        -5.01748        -1.10040
   C       15.63773        -5.78476        -1.26609
   S       14.03100        -5.20016        -1.19762
   C       18.12308        -5.36287        -1.15289
   C       18.90150        -4.22799        -0.92049
   C       20.28381        -4.51210        -0.95622
   C       20.51433        -5.82621        -1.21433
   S       19.07592        -6.76851        -1.41705
   C       18.03590        -3.10252        -0.67801
   C       18.49279        -1.80584        -0.36902
   C       17.72355        -0.80974         0.16869
   C       18.14806         0.51543         0.33806
   C       17.29128         1.53378         0.69600
   C       17.61863         2.92634         0.91082
   C       18.87302         3.48459         0.94239
   C       19.12248         4.85244         1.17198
   N       19.38927         5.95505         1.35104
   C       20.08169         2.78061         0.77132
   N       21.10734         2.27769         0.64729
   C       16.36879         3.65175         1.13155
   C       15.30081         2.72249         1.10814
   C       15.83150         1.37942         0.82582
   O       15.15796         0.37126         0.68076
   C       13.99036         3.08646         1.29555
   C       13.71549         4.44140         1.49975
   C       14.78369         5.36929         1.49986
   C       16.11238         4.99609         1.32699
   S       14.21153         6.99503         1.72948
   C       12.57097         6.40414         1.82230
   C       12.45280         5.06365         1.69425
  Br       11.15731         7.60777         2.05443
   H        8.20351         7.76185         1.24684
   H        4.71594        10.05482         0.36158
   H        3.42178         7.97692        -0.04764
   H        8.12709         5.31560         1.14698
   H        3.31766         5.51410        -0.16198
   H        4.70941         0.40138        -0.74976
   H        8.19554        -3.08465        -0.79516
   H        5.95651        -1.94177        -0.45714
   H       13.76606        -0.75036        -0.54637
   H       11.45501         0.21187        -0.61713
   H       15.50848        -1.81943        -0.74701
   H       15.70877        -6.84562        -1.45008
   H       21.06665        -3.79194        -0.80275
   H       21.46174        -6.32122        -1.30142
   H       19.53763        -1.60212        -0.57413
   H       16.72287        -1.03837         0.49044
   H       19.18571         0.74456         0.13328
   H       13.19883         2.35350         1.28302
   H       16.89033         5.74115         1.33973
   H       11.51935         4.53150         1.75304
*
