# ORCA input file
# SCF done       -196.149199092523          0.000861948574
! CAM-B3LYP def2-SVP def2/J RIJCOSX Grid4 TightSCF
%maxcore 5000
%tddft
    Mode sTDDFT
    Ethresh 5.0
    maxcore 5000
end

%pal
  nprocs 6
  end
* xyz 0 1
   C        8.23347         4.73027         6.98176
   C        7.83963         5.32662         8.14601
   F        8.63894         6.24510         8.72474
   C        6.61164         5.04252         8.75880
   C        5.79334         4.10561         8.19401
   C        6.15420         3.45087         6.99996
   C        7.38863         3.78277         6.37008
   C        7.73585         3.19406         5.13207
   C        6.87067         2.31074         4.54404
   C        5.65612         1.95422         5.19824
   C        5.30120         2.49996         6.39679
   C        4.89041         1.02324         4.34052
   O        3.85415         0.45554         4.60229
   C        5.62443         1.00942         3.05097
   C        6.92018         1.62057         3.26001
   C        8.03196         1.42771         2.48437
   C        9.27427         2.04007         2.73744
   N       10.29168         2.54835         2.89519
   C        8.05474         0.54120         1.38994
   N        8.13291        -0.22146         0.53483
   C        4.98929         0.65390         1.90347
   C        5.34470         0.98815         0.56390
   C        5.16560         0.14098        -0.52371
   C        4.64288        -1.24485        -0.56631
   N        5.69509         0.74720        -1.61280
   C        6.20182         1.97098        -1.28848
   C        6.79429         2.86962        -2.31008
   C        5.99679         2.17335         0.06267
   C        6.33852         3.37865         0.76836
   C        5.69179         3.85766         1.84873
   C        6.12945         4.96801         2.62904
   C        7.22155         5.79190         2.44886
   C        7.38364         6.69313         3.50392
   C        6.41496         6.54484         4.50817
   S        5.27415         5.33181         4.12508
   C        6.70802         7.45634         5.55534
   C        7.84753         8.19428         5.20194
   C        8.30216         7.74953         3.89348
   C        9.35870         8.23105         3.17636
   C       10.17964         9.27366         3.65374
   N       10.84598        10.12524         4.03620
   C        9.68697         7.73095         1.89910
   N        9.94374         7.33595         0.85336
   C        8.24801         9.09193         6.19471
   C        7.44934         9.01404         7.31527
   S        6.13612         7.85874         7.11486
   C        7.61155         9.71154         8.55438
   C        7.26208         9.16504         9.75928
   C        7.42403         9.79552        10.99614
   C        7.80446        11.21585        11.06067
   C        8.22667        11.93404         9.99836
   S        8.34011        11.30686         8.40445
   C        7.67769        11.57654        12.42983
   C        7.29447        10.46008        13.17348
   C        7.17702        10.75143        14.55029
   C        7.46235        12.05398        14.81009
   S        7.89279        12.97454        13.40703
   C        7.17627         9.32602        12.29399
   C        6.95195         8.00032        12.75772
   C        7.33724         6.87093        12.11737
   C        7.15761         5.55170        12.62533
   C        6.56725         5.11844        13.77914
   C        6.59195         3.71435        13.94850
   C        7.21453         3.05114        12.85874
   S        7.78156         4.20344        11.68531
   C        7.33922         1.67364        12.80885
   S        8.10264         0.78850        11.47686
   C        7.34520         1.54463        10.00343
   C        6.86000         0.94213        13.90355
   C        6.25467         1.60198        15.00148
   C        6.11731         2.98037        15.04627
   S        5.34795         3.86943        16.36840
   C        6.09001         3.12165        17.85287
   S        5.71465         0.44284        16.18929
   C        6.29800        -0.86943        15.22638
   C        6.86812        -0.47264        14.07240
   H        9.17819         4.98708         6.52798
   H        6.33225         5.56603         9.65815
   H        4.84479         3.86728         8.65061
   H        8.66002         3.48533         4.65778
   H        4.36957         2.22858         6.86994
   H        4.07013         0.09033         2.03496
   H        3.83607        -1.37149         0.15171
   H        5.43378        -1.95131        -0.31054
   H        4.27623        -1.48583        -1.56215
   H        5.75193         0.32952        -2.52837
   H        7.06647         2.30627        -3.19971
   H        7.68600         3.35343        -1.91724
   H        6.09028         3.65157        -2.59743
   H        7.19016         3.91960         0.37639
   H        4.79731         3.36240         2.20127
   H        7.87281         5.73175         1.59699
   H        9.10186         9.74222         6.13285
   H        6.82603         8.17638         9.73626
   H        8.54997        12.95964        10.08141
   H        6.89476        10.04407        15.30892
   H        7.45041        12.55279        15.75949
   H        6.50828         7.91839        13.74115
   H        7.87231         6.94449        11.18152
   H        6.12163         5.77121        14.50650
   H        7.34486         0.77348         9.23928
   H        7.92629         2.39810         9.66799
   H        6.32804         1.83874        10.23756
   H        6.05853         3.89177        18.61745
   H        7.11771         2.85002        17.63727
   H        5.51829         2.25609        18.17209
   H        6.17183        -1.86758        15.59714
   H        7.29074        -1.13942        13.34351
*
