# ORCA input file
# SCF done       -218.446224621778          0.000728657478
! CAM-B3LYP def2-SVP def2/J RIJCOSX Grid4 TightSCF
%maxcore 5000
%tddft
    Mode sTDDFT
    Ethresh 5.0
    maxcore 5000
end

%pal
  nprocs 6
  end
* xyz 0 1
   C        4.46360         3.30886        -2.00788
   C        4.62677         3.43642        -3.50431
   C        3.90309         2.64927        -4.39056
   C        4.04606         2.82639        -5.75646
   C        4.89621         3.79932        -6.24913
   C        5.59245         4.61230        -5.36908
   C        5.45356         4.43794        -4.00599
   C        5.75820         3.25627        -1.21976
   C        5.70289         3.41735         0.16085
   C        6.84770         3.31576         0.92789
   C        8.06418         3.04264         0.32534
   C        8.12440         2.86964        -1.04584
   C        6.97923         2.97202        -1.81731
   C        3.60813         2.14480        -1.57621
   C        2.36749         2.48405        -1.09497
   C        2.10519         3.89563        -1.01506
   C        0.95086         4.50365        -0.59566
   C       -0.20432         3.82723        -0.16102
   N       -1.18195         3.35361         0.20792
   C        0.85723         5.91003        -0.57365
   N        0.79125         7.05533        -0.55822
   S        3.48885         4.82619        -1.51571
   C        1.37548         1.53229        -0.78622
   N        0.58232         0.72600        -0.59708
   C        4.12704         0.82355        -1.63785
   C        3.75378        -0.26605        -0.86601
   C        4.48452        -1.40692        -1.17764
   C        5.41364        -1.19673        -2.21867
   S        5.41786         0.41318        -2.77100
   C        6.06661        -2.41774        -2.49381
   C        5.56667        -3.40266        -1.62176
   C        4.56703        -2.79298        -0.75389
   C        3.87990        -3.39255         0.25947
   C        4.04758        -4.75887         0.57123
   N        4.18521        -5.86891         0.82225
   C        2.98333        -2.68304         1.08814
   N        2.27658        -2.11249         1.78686
   C        6.14714        -4.65147        -1.81895
   C        7.08160        -4.63252        -2.84528
   S        7.24691        -3.03984        -3.56496
   C        7.84598        -5.72453        -3.32165
   C        7.90802        -7.00026        -2.78378
   C        8.74918        -7.83474        -3.51259
   C        9.33597        -7.19396        -4.62830
   S        8.85335        -5.55827        -4.75623
   C       10.14846        -8.11924        -5.30965
   C       10.08499        -9.35373        -4.62340
   C        9.22052        -9.20460        -3.46044
   C        8.95209       -10.14836        -2.51267
   C        9.53703       -11.43329        -2.53992
   N       10.03762       -12.46479        -2.53964
   C        8.10912        -9.88032        -1.41274
   N        7.43563        -9.65386        -0.51325
   C       10.82297       -10.35636        -5.21906
   C       11.47538        -9.92536        -6.37824
   S       11.15371        -8.21381        -6.69208
   C       12.29162       -10.64064        -7.26093
   C       12.53067       -11.99998        -7.24414
   C       13.38819       -12.71177        -8.11690
   C       13.43206       -14.05957        -7.89260
   C       12.60067       -14.48145        -6.83740
   S       11.77093       -13.11992        -6.13579
   C       12.37213       -15.74382        -6.30585
   C       12.94958       -16.98748        -6.62932
   C       12.49420       -18.01676        -5.85310
   C       11.52974       -17.63349        -4.89351
   S       11.22108       -15.91607        -5.00669
   C       10.88461       -18.42493        -3.96201
   C        9.91818       -17.89711        -3.10683
   C        9.27104       -18.57504        -2.09896
   C        8.25592       -18.03407        -1.22900
   C        7.58552       -16.84351        -1.38466
   C        6.59251       -16.37902        -0.49893
   N        5.77510       -15.94576         0.18191
   C        7.74078       -15.94635        -2.46121
   N        7.77761       -15.17768        -3.31483
   C        8.01315       -19.01176        -0.17171
   C        8.79844       -20.17075        -0.43739
   C        9.58758       -19.95448        -1.66472
   O       10.34852       -20.74166        -2.19273
   C        8.77580       -21.25902         0.38541
   C        7.95807       -21.23568         1.53850
   C        7.17563       -20.07799         1.81382
   C        7.21466       -18.96722         0.93877
   C        6.36966       -20.06147         2.96968
   C        6.33696       -21.13651         3.81594
   C        7.10761       -22.27632         3.54417
   C        7.90023       -22.32511         2.42923
   H        3.21575         1.89994        -4.02492
   H        3.48159         2.20347        -6.43368
   H        5.00498         3.93563        -7.31429
   H        6.23979         5.39031        -5.74441
   H        5.97765         5.08734        -3.31955
   H        4.75845         3.63149         0.64064
   H        6.78704         3.44840         1.99733
   H        8.95968         2.96349         0.92278
   H        9.06712         2.65163        -1.52491
   H        7.04312         2.82637        -2.88507
   H        3.00178        -0.21356        -0.10045
   H        5.90382        -5.53737        -1.26264
   H        7.36696        -7.29473        -1.90383
   H       10.90143       -11.34995        -4.82394
   H       12.77251       -10.07388        -8.04756
   H       13.95184       -12.20777        -8.88223
   H       14.03049       -14.74922        -8.46034
   H       13.68247       -17.09234        -7.40945
   H       12.82044       -19.03770        -5.94274
   H       11.13729       -19.47325        -3.89724
   H        9.67496       -16.84957        -3.24445
   H        9.37841       -22.12738         0.16331
   H        6.61412       -18.10380         1.17705
   H        5.77772       -19.18122         3.17369
   H        5.71698       -21.11374         4.69971
   H        7.07084       -23.11557         4.22272
   H        8.49604       -23.20059         2.21540
*
