# ORCA input file
# SCF done       -277.463172314092          0.000622193117
! CAM-B3LYP def2-SVP def2/J RIJCOSX Grid4 TightSCF
%maxcore 5000
%tddft
    Mode sTDDFT
    Ethresh 5.0
    maxcore 5000
end

%pal
  nprocs 6
  end
* xyz 0 1
   C        4.78842        -3.67770         3.24110
   C        5.25062        -4.64723         4.09123
   C        6.35152        -4.47654         4.96143
   N        7.23598        -4.40786         5.68824
   C        4.68832        -5.92767         4.26897
   N        4.26599        -6.97449         4.48542
   C        5.32878        -2.32704         3.13508
   C        4.51138        -1.57558         2.27244
   C        4.76801        -0.24831         1.99342
   C        5.87632         0.34642         2.58295
   C        6.70252        -0.39631         3.43797
   C        6.43508        -1.73134         3.72052
  Cl        8.07053         0.34740         4.15504
  Cl        6.23424         1.99121         2.26145
   C        3.41422        -2.41607         1.76098
   O        2.50408        -2.05270         1.04786
   C        3.65666        -3.77157         2.32480
   C        2.97369        -4.92303         2.07832
   C        1.89216        -5.18821         1.17706
   C        1.77051        -4.34981        -0.02822
   C        0.57789        -3.74832        -0.42821
   C        0.51351        -2.92159        -1.54362
   C        1.65802        -2.67539        -2.29466
   C        2.86030        -3.26760        -1.92033
   C        2.90449        -4.09083        -0.80353
   F        4.07474        -4.64777        -0.47377
   F        3.96575        -3.04355        -2.63090
   F        1.60294        -1.88681        -3.36525
   F       -0.64726        -2.37311        -1.90115
   F       -0.53325        -3.95393         0.27318
   C        1.06469        -6.26353         1.43144
   C        1.26827        -7.03881         2.68077
   C        1.19006        -6.47161         3.95205
   C        1.39780        -7.21895         5.10432
   C        1.72828        -8.56868         5.00524
   C        1.83001        -9.15665         3.74672
   C        1.59010        -8.39639         2.60648
   F        1.66735        -8.98853         1.41488
   F        2.13827       -10.44413         3.63602
   F        1.92556        -9.28937         6.10009
   F        1.26951        -6.64560         6.29990
   F        0.85916        -5.17991         4.07390
   C        0.05577        -6.79475         0.54809
   C        0.25089        -6.66593        -0.90747
   C       -0.78673        -6.27530        -1.76164
   C       -0.60695        -6.16508        -3.13348
   C        0.64002        -6.42287        -3.69891
   C        1.69382        -6.80069        -2.87242
   C        1.48965        -6.92407        -1.50181
   F        2.51971        -7.30331        -0.74250
   F        2.89719        -7.03246        -3.38755
   F        0.81982        -6.29541        -5.00778
   F       -1.63097        -5.80973        -3.91067
   F       -1.99546        -6.00475        -1.26089
   C       -1.04403        -7.46821         1.05433
   C       -1.45924        -7.31089         2.47101
   C       -1.87503        -6.08134         2.98283
   C       -2.33466        -5.95691         4.29260
   C       -2.38485        -7.07387         5.12174
   C       -1.98323        -8.31338         4.62798
   C       -1.54408        -8.41893         3.31492
   F       -1.15174        -9.61545         2.86112
   F       -2.01948        -9.39088         5.41076
   F       -2.81898        -6.96327         6.37227
   F       -2.73532        -4.77467         4.74874
   F       -1.86134        -5.00441         2.21071
   C       -1.88370        -8.31254         0.28180
   C       -1.59462        -8.96290        -0.91124
   C       -2.69137        -9.63561        -1.42283
   C       -3.83643        -9.54540        -0.59489
   S       -3.54945        -8.60573         0.79587
   C       -4.87909       -10.27329        -1.19903
   C       -4.41146       -10.81584        -2.41446
   C       -3.02953       -10.40395        -2.60580
   C       -2.24364       -10.58938        -3.70690
   C       -2.67061       -11.34082        -4.82097
   N       -3.02129       -11.95969        -5.71979
   C       -0.98114        -9.96768        -3.79060
   N        0.01444        -9.39917        -3.82882
   C       -5.38436       -11.52654        -3.10512
   C       -6.60061       -11.53886        -2.43441
   S       -6.52391       -10.65318        -0.91561
   C       -7.81096       -12.15326        -2.85373
   C       -8.97598       -12.07040        -2.12526
   C      -10.19371       -12.62837        -2.50191
   C      -10.34436       -13.29713        -3.80651
   C       -9.32747       -13.51295        -4.66781
   S       -7.71013       -13.02284        -4.38457
   C      -11.72361       -13.61944        -3.90635
   C      -12.38694       -13.19189        -2.74881
   C      -13.76932       -13.48862        -2.78953
   C      -14.11031       -14.11156        -3.94585
   S      -12.78005       -14.37080        -5.02922
   C      -11.44154       -12.59619        -1.85640
   C      -11.78927       -12.09093        -0.55612
   C      -10.98280       -11.99622         0.50097
   H        4.12251         0.30875         1.33281
   H        7.09475        -2.26789         4.38222
   H        3.28810        -5.78750         2.64530
   H       -0.61363        -8.97688        -1.34665
   H       -5.23467       -12.01448        -4.05136
   H       -8.93606       -11.49754        -1.20858
   H       -9.46223       -14.02226        -5.60917
   H      -14.47234       -13.25530        -2.01086
   H      -15.08223       -14.44967        -4.24795
   H      -12.83012       -11.81011        -0.44889
   H       -9.96083       -12.33257         0.48329
   H      -11.34070       -11.61029         1.43959
*
