# ORCA input file
# SCF done       -183.204849106372          0.000387906024
! CAM-B3LYP def2-SVP def2/J RIJCOSX Grid4 TightSCF
%maxcore 5000
%tddft
    Mode sTDDFT
    Ethresh 5.0
    maxcore 5000
end

%pal
  nprocs 6
  end
* xyz 0 1
   C       -5.86478        -2.56993         2.68154
   C       -6.23962        -3.12006         3.87800
   C       -7.31022        -2.64089         4.66363
   N       -8.16741        -2.30058         5.34639
   C       -5.61464        -4.21531         4.51358
   N       -5.15523        -5.08036         5.11259
   C       -6.47005        -1.38812         2.06845
   C       -5.77864        -1.09428         0.88129
   C       -6.13282        -0.03855         0.06669
   C       -7.21607         0.74422         0.44432
   C       -7.90562         0.46883         1.63015
   C       -7.53882        -0.59460         2.44963
  Cl       -9.23411         1.45301         2.08923
  Cl       -7.70920         2.04996        -0.55412
   C       -4.72756        -2.09863         0.66482
   O       -4.03079        -2.20270        -0.33275
   C       -4.77909        -3.00551         1.81995
   C       -4.06926        -4.17198         1.97462
   C       -2.95031        -4.66507         1.25490
   S       -3.01571        -6.44149         1.28061
   C       -1.59451        -6.98689         0.40805
   C       -1.28320        -8.30946         0.31732
   S        0.11454        -8.58361        -0.64005
   C        0.29723        -6.90204        -0.91399
   C       -0.68091        -6.17345        -0.30677
   S       -0.70787        -4.41775        -0.42664
   C       -1.97841        -3.88278         0.66647
   C       -1.93008        -2.48660         0.93710
   C       -1.45283        -1.54789         0.07976
   C       -1.59403        -0.14696         0.27567
   S       -2.10171         0.31721         1.92312
   C       -3.29550         1.56196         1.59526
   C       -4.39465         1.79316         2.36161
   S       -5.30041         3.13560         1.78709
   C       -4.20814         3.36614         0.48081
   C       -3.18719         2.46754         0.51098
   S       -1.83911         2.47650        -0.61582
   C       -1.39926         0.76511        -0.73626
   C       -0.77524         0.41398        -1.97293
   C       -0.77978         1.16729        -3.09654
   C       -0.05872         0.86472        -4.29762
   S        0.37738         2.37363        -5.14821
   C        2.02292         2.02933        -5.65922
   C        2.99589         2.97429        -5.75980
   S        4.48719         2.30440        -6.28998
   C        3.80094         0.72952        -6.35410
   C        2.48726         0.73403        -6.00277
   S        1.46213        -0.69296        -6.03726
   C        0.29440        -0.38037        -4.73576
   C       -0.28468        -1.61871        -4.30241
   C       -1.57590        -1.80839        -3.92417
   C       -2.04362        -3.07517        -3.51421
   C       -3.31979        -3.34021        -3.10259
   C       -3.78600        -4.57990        -2.51888
   C       -3.18356        -5.80844        -2.58483
   C       -3.73614        -6.98437        -2.03541
   N       -4.12686        -7.97661        -1.61102
   C       -1.96902        -6.08395        -3.24590
   N       -0.98412        -6.39264        -3.74973
   C       -5.06857        -4.30096        -1.88239
   C       -5.50619        -3.02661        -2.28640
   C       -4.43123        -2.35807        -3.05587
   O       -4.45687        -1.23463        -3.50477
   C       -6.70059        -2.49896        -1.84131
   C       -7.41495        -3.20924        -0.88504
   C       -6.94263        -4.43969        -0.41790
   C       -5.79001        -5.01511        -0.94196
  Cl       -7.77264        -5.24384         0.85498
  Cl       -8.85119        -2.53265        -0.22352
   H       -5.58547         0.16388        -0.84102
   H       -8.10316        -0.78169         3.34837
   H       -4.46510        -4.88669         2.68791
   H       -1.81646        -9.12874         0.75372
   H        1.09781        -6.53191        -1.52081
   H       -2.40866        -2.16709         1.85364
   H       -1.07010        -1.88297        -0.87237
   H       -4.70235         1.26819         3.24259
   H       -4.36231         4.15912        -0.22203
   H       -0.22535        -0.51474        -1.98653
   H       -1.26631         2.13400        -3.09263
   H        2.90950         4.02397        -5.56704
   H        4.39186        -0.10835        -6.66302
   H        0.35164        -2.48947        -4.41835
   H       -2.26904        -0.98105        -3.90299
   H       -1.30894        -3.87023        -3.46987
   H       -7.04676        -1.53907        -2.18949
   H       -5.46351        -5.97413        -0.57214
*
