# ORCA input file
# SCF done       -182.456165704172          0.023694320921
! CAM-B3LYP def2-SVP def2/J RIJCOSX Grid4 TightSCF
%maxcore 5000
%tddft
    Mode sTDDFT
    Ethresh 5.0
    maxcore 5000
end

%pal
  nprocs 6
  end
* xyz 0 1
   C        1.47887        -2.08828         1.84557
   C        1.79112        -3.37090         2.21930
   C        3.08503        -3.80086         2.56447
   N        4.09436        -4.26452         2.84865
   C        0.83241        -4.39539         2.34689
   N        0.14057        -5.30766         2.45419
   C        2.32086        -0.91769         2.08060
   C        1.52422         0.23815         1.98824
   C        2.04323         1.49430         2.22366
   C        3.39108         1.60143         2.54688
   C        4.19122         0.45730         2.62868
   C        3.66235        -0.80903         2.40297
  Cl        5.85663         0.60632         3.02129
  Cl        4.07328         3.14864         2.84937
   C        0.14277        -0.14447         1.61276
   O       -0.81638         0.57853         1.48104
   C        0.20029        -1.61197         1.38420
   C       -0.82819        -2.23059         0.72447
   C       -0.82724        -3.47804         0.08137
   C        0.23358        -4.27499        -0.35146
   C       -0.17472        -5.51463        -0.91110
   S        1.21336        -6.42920        -1.37501
   C        2.21353        -5.07516        -0.81755
   N        1.57317        -4.06966        -0.33816
   C        3.68625        -5.15691        -0.88036
   C       -1.54902        -5.69004        -0.94863
   S       -2.33734        -4.26962        -0.31436
   C       -2.26564        -6.83592        -1.34034
   C       -1.74138        -8.07887        -1.67187
   C       -2.73693        -9.06603        -1.90865
   S       -1.97754       -10.57386        -2.28956
   C       -0.39890        -9.75317        -2.10490
   N       -0.46458        -8.51703        -1.79450
   C        0.85024       -10.50914        -2.31114
   C       -4.03498        -8.60722        -1.80517
   S       -4.00735        -6.90217        -1.38157
   C       -5.25466        -9.31837        -1.96339
   C       -6.47385        -8.68839        -2.09769
   C       -7.68974        -9.34729        -2.23713
   C       -7.77109       -10.80868        -2.17989
   C       -6.69985       -11.62549        -2.07123
   S       -5.08340       -11.06714        -1.96828
   C       -9.15189       -11.11676        -2.31065
   C       -9.89423        -9.94559        -2.48251
   C      -11.27557       -10.22162        -2.60903
   C      -11.52858       -11.55523        -2.54423
   S      -10.12131       -12.53284        -2.30954
   C       -8.98698        -8.81982        -2.45167
   C       -9.28135        -7.46542        -2.67782
   C      -10.49988        -6.99395        -3.08673
   C      -10.72832        -5.64889        -3.40311
   C      -11.91962        -5.16741        -3.89716
   C      -12.20235        -3.81258        -4.31251
   C      -11.36512        -2.72537        -4.23374
   C      -11.69779        -1.43664        -4.69791
   N      -11.93600        -0.34695        -4.97670
   C      -10.06550        -2.72660        -3.68829
   N       -8.95196        -2.67818        -3.39030
   C      -13.56177        -3.78542        -4.84807
   C      -14.11612        -5.08377        -4.74439
   C      -13.12346        -5.99088        -4.13414
   O      -13.29615        -7.16955        -3.88534
   C      -15.38331        -5.38759        -5.17640
   C      -16.14348        -4.35920        -5.74317
   C      -15.58292        -3.06466        -5.84253
   C      -14.30084        -2.75738        -5.40187
   S      -16.68867        -1.94497        -6.58088
   C      -17.87471        -3.21374        -6.73592
   C      -17.46503        -4.41497        -6.26500
  Br      -19.53509        -2.83867        -7.52471
   H        1.41698         2.36996         2.16154
   H        4.30477        -1.67153         2.47424
   H       -1.74275        -1.65083         0.64761
   H        3.99890        -5.90467        -1.60401
   H        4.07901        -5.43097         0.10051
   H        4.09996        -4.18497        -1.14042
   H        0.88266       -10.91458        -3.32162
   H        0.90414       -11.34438        -1.61399
   H        1.69903        -9.84891        -2.15535
   H       -6.45774        -7.60638        -2.09408
   H       -6.78587       -12.70036        -2.06603
   H      -12.05945        -9.49790        -2.73426
   H      -12.48199       -12.04240        -2.60633
   H       -8.46578        -6.75903        -2.57727
   H      -11.31534        -7.68063        -3.22781
   H       -9.90158        -4.96249        -3.27449
   H      -15.77657        -6.38774        -5.08117
   H      -13.92030        -1.75503        -5.50448
   H      -18.06671        -5.30527        -6.28709
*
