# ORCA input file
# SCF done       -211.834672834796          0.000724824223
! CAM-B3LYP def2-SVP def2/J RIJCOSX Grid4 TightSCF
%maxcore 5000
%tddft
    Mode sTDDFT
    Ethresh 5.0
    maxcore 5000
end

%pal
  nprocs 6
  end
* xyz 0 1
   C       -0.91710        -2.94682        -1.48135
   C       -0.91814        -2.71652        -0.13741
   C       -0.94245        -1.33896         0.14361
   C       -0.95939        -0.55427        -1.02031
   S       -0.94586        -1.50473        -2.43889
   C       -0.98861         0.81725        -0.65382
   C       -0.99011         0.88973         0.75496
   C       -0.95910        -0.46134         1.29853
   C       -0.94578        -0.81802         2.61574
   C       -0.96305         0.13551         3.65538
   N       -0.97516         0.90020         4.50988
   C       -0.91070        -2.16656         3.02786
   N       -0.87997        -3.26146         3.36787
   C       -1.02403         2.19333         1.22469
   C       -1.04573         3.12108         0.18664
   S       -1.02087         2.35472        -1.39348
   C       -1.10281         4.53055         0.31506
   C       -1.12064         5.38264        -0.81498
   C       -1.24495         6.81109        -0.72768
   N       -1.17229         7.52471        -1.87036
   C       -1.05257         6.92270        -3.00878
   C       -0.99624         5.51301        -3.09562
   N       -1.01341         4.79367        -2.02036
   F       -0.90214         4.89264        -4.26786
   F       -0.95836         7.68495        -4.10056
   C       -1.39844         7.47108         0.52192
   C       -1.29543         6.62469         1.65177
   C       -1.15811         5.19133         1.56388
   N       -1.10794         4.63013         2.77138
   S       -1.21786         5.76230         3.89876
   N       -1.33967         7.03402         2.91895
   C       -1.67516         8.86730         0.68265
   C       -2.09356         9.66273        -0.37144
   C       -2.43256        11.00033        -0.29326
   C       -2.24150        11.75923         0.93777
   C       -1.85409        11.18606         2.10181
   S       -1.53537         9.51261         2.30666
   C       -2.54581        13.11153         0.60942
   C       -2.91867        13.19598        -0.73372
   C       -3.24073        14.51704        -1.11636
   C       -3.10301        15.38206        -0.07839
   S       -2.58717        14.63445         1.39822
   C       -2.89594        11.88231        -1.31945
   C       -3.28198        11.61267        -2.63779
   C       -3.54200        10.37140        -3.16551
   C       -3.84450        10.09273        -4.50867
   C       -4.06270         8.73721        -4.90019
   C       -4.42250         8.36513        -6.23398
   N       -4.53443         7.05591        -6.54978
   C       -4.37338         6.16522        -5.62368
   C       -4.08284         6.53993        -4.29567
   N       -3.91479         7.78222        -3.96452
   F       -3.92203         5.62617        -3.32713
   F       -4.48317         4.88512        -5.97552
   C       -4.62143         9.32901        -7.25054
   C       -4.32456        10.66470        -6.89092
   C       -3.95180        11.04877        -5.55108
   N       -3.75992        12.36352        -5.45421
   S       -4.02358        13.04266        -6.88868
   N       -4.39484        11.71431        -7.70774
   C       -5.02110         9.04253        -8.58119
   C       -5.70179         7.97742        -9.09130
   C       -5.62092         7.70617       -10.55439
   O       -5.19740         8.45027       -11.40909
   C       -6.11806         6.32585       -10.71982
   C       -6.13357         5.54459       -11.83842
   C       -6.62707         4.22308       -11.74910
   C       -7.08722         3.73298       -10.49222
   C       -7.56500         2.41067       -10.40852
   C       -7.58235         1.63066       -11.53098
   C       -7.13824         2.09499       -12.77617
   C       -6.66810         3.37517       -12.87458
   F       -8.04094         0.36669       -11.45330
   C       -7.06777         4.56886        -9.35090
   C       -6.59942         5.84909        -9.46649
   C       -6.48313         6.92519        -8.48704
   C       -7.18682         6.99907        -7.31161
   C       -7.22405         8.14152        -6.49135
   N       -7.28915         9.04777        -5.78824
   C       -7.99435         5.95964        -6.80945
   N       -8.65322         5.14523        -6.33920
   H       -0.90182        -3.89451        -1.98181
   H       -0.90305        -3.49607         0.60215
   H       -1.03461         2.49311         2.25631
   H       -2.12780         9.17686        -1.33101
   H       -1.74190        11.75525         3.01152
   H       -3.55308        14.81238        -2.10114
   H       -3.27531        16.44054        -0.07697
   H       -3.41222        12.46868        -3.28707
   H       -3.55581         9.50211        -2.52849
   H       -4.69757         9.77403        -9.31644
   H       -5.77119         5.92714       -12.78093
   H       -7.91723         2.02069        -9.46638
   H       -7.17612         1.43395       -13.62750
   H       -6.31934         3.75545       -13.82303
   H       -7.41060         4.17016        -8.40931
*
