# ORCA input file
# SCF done       -203.812004005221          0.000843962855
! CAM-B3LYP def2-SVP def2/J RIJCOSX Grid4 TightSCF
%maxcore 5000
%tddft
    Mode sTDDFT
    Ethresh 5.0
    maxcore 5000
end

%pal
  nprocs 6
  end
* xyz 0 1
   C       -3.54426         4.05763         0.98472
   C       -2.51803         4.08214         1.89454
   C       -2.48386         3.29192         3.06164
   N       -2.39565         2.68165         4.02968
   C       -1.33047         4.81419         1.71524
   N       -0.32619         5.35719         1.58327
   C       -4.65703         3.11856         0.98036
   C       -5.23981         3.10864        -0.32122
   C       -6.30368         2.30822        -0.62247
   C       -6.84851         1.48038         0.38498
   C       -6.28191         1.50306         1.69255
   C       -5.17330         2.33337         1.97420
   C       -6.84867         0.68612         2.69160
   C       -7.92060        -0.11811         2.41460
   C       -8.47507        -0.14276         1.12627
   C       -7.95014         0.63919         0.13324
   C       -4.54597         4.08571        -1.17411
   O       -4.71411         4.32136        -2.34844
   C       -3.60730         4.79856        -0.25638
   C       -3.09227         5.99677        -0.64103
   C       -2.46936         6.99899         0.14663
   S       -1.22699         7.94130        -0.61341
   C       -0.74241         8.66487         0.86962
   C       -1.54022         8.22895         1.93022
   C       -2.58065         7.33364         1.50514
   C       -3.55151         6.89832         2.44633
   C       -4.84613         6.25474         2.10651
   O       -5.38864         5.44677         2.81134
   O       -5.45423         6.69143         0.98425
   C       -3.34354         7.17799         3.78084
   C       -2.24705         7.91730         4.21652
   C       -1.35352         8.46750         3.32224
   O       -0.34165         9.19073         3.83332
   C        0.31710         9.63761         0.86791
   S        0.00321        11.26305         1.43344
   C        1.64842        11.72405         1.10042
   C        2.34957        10.70026         0.50911
   C        1.59590         9.51341         0.37831
   C        2.18994         8.23855        -0.12995
   C        3.49782         8.50354        -0.87008
   C        4.40828         9.40442        -0.02479
   C        5.75441         9.49866        -0.69116
   O        6.77837         9.05637        -0.25819
   C        3.78073        10.79700         0.08865
   C        2.09723        13.04595         1.41870
   S        2.89760        13.98883         0.22029
   C        2.99328        15.38388         1.24511
   C        2.34370        15.13380         2.46166
   C        1.90400        13.78018         2.59523
   C        1.37618        13.33419         3.84043
   C        1.16903        11.90652         4.15238
   O        1.81185        10.99308         3.68175
   O        0.19763        11.70230         5.04094
   C        1.15717        14.26730         4.82798
   C        1.42311        15.62381         4.62918
   C        2.00399        16.07895         3.46717
   O        2.19673        17.39253         3.23331
   C        3.68256        16.51842         0.76897
   C        4.37275        17.41616         1.53473
   C        4.91320        18.68161         1.08742
   C        4.63178        19.31257        -0.09795
   C        5.15128        20.57047        -0.46574
   N        5.54291        21.58850        -0.82457
   C        3.76976        18.81346        -1.09579
   N        3.07111        18.48051        -1.94471
   C        5.73268        19.22412         2.16489
   C        5.68258        18.32464         3.26752
   C        4.84523        17.16249         2.91952
   O        4.67559        16.16949         3.59838
   C        6.35095        18.57243         4.43119
   C        7.10807        19.75972         4.55233
   C        7.16773        20.66227         3.45183
   C        6.47075        20.37406         2.25545
   C        7.93012        21.84080         3.58108
   C        8.59998        22.11780         4.74181
   C        8.53948        21.22897         5.82526
   C        7.80901        20.07519         5.73260
   H       -6.73094         2.31197        -1.61432
   H       -4.77583         2.35382         2.97620
   H       -6.41738         0.70882         3.68139
   H       -8.34807        -0.73985         3.18711
   H       -9.32137        -0.78260         0.92491
   H       -8.37465         0.62596        -0.86012
   H       -3.17253         6.20832        -1.70374
   H       -4.94886         7.37552         0.52486
   H       -4.06348         6.81178         4.49646
   H       -2.08932         8.08653         5.26902
   H        0.34307         9.41975         3.18281
   H        1.48832         7.72573        -0.78940
   H        2.37396         7.57579         0.72120
   H        3.29186         8.99453        -1.82386
   H        3.99557         7.55485        -1.07548
   H        4.53215         8.96690         0.96990
   H        5.72183        10.01698        -1.67192
   H        3.83299        11.29788        -0.88470
   H        4.33696        11.40625         0.80411
   H        0.06283        10.74417         5.16662
   H        0.76496        13.94151         5.77819
   H        1.18046        16.32903         5.41220
   H        1.92517        17.90509         4.00668
   H        3.70240        16.63169        -0.30805
   H        6.30075        17.87218         5.25210
   H        6.54361        21.07254         1.43702
   H        7.97290        22.52241         2.74421
   H        9.18057        23.02373         4.83123
   H        9.07495        21.46234         6.73340
   H        7.75986        19.38629         6.56337
*
