# ORCA input file
# SCF done       -185.610070165538          0.000720781320
! CAM-B3LYP def2-SVP def2/J RIJCOSX Grid4 TightSCF
%maxcore 5000
%tddft
    Mode sTDDFT
    Ethresh 5.0
    maxcore 5000
end

%pal
  nprocs 6
  end
* xyz 0 1
   C        2.54783         4.62125        -3.69417
   C        1.22073         4.94320        -3.84489
   C        0.69353         5.58497        -4.98111
   N        0.22591         6.15942        -5.85917
   C        0.22476         4.59245        -2.91252
   N       -0.62227         4.22945        -2.22598
   C        3.51221         4.53424        -4.78437
   C        4.64565         3.79547        -4.33349
   C        5.68940         3.50367        -5.16326
   C        5.65569         3.95562        -6.50200
   C        4.51663         4.67480        -6.96539
   C        3.44480         4.95164        -6.08607
   C        4.48608         5.10618        -8.30617
   C        5.54056         4.86599        -9.14432
   C        6.66948         4.17522        -8.68082
   C        6.72275         3.72192        -7.39027
   C        4.46029         3.43278        -2.91891
   O        5.21123         2.80389        -2.20608
   C        3.17278         4.05978        -2.51463
   C        2.81734         4.07303        -1.20000
   C        1.83743         4.87314        -0.56302
   C        1.05510         4.51459         0.52789
   C        0.11748         5.50796         0.89348
   S       -1.18053         5.34572         2.05948
   C       -0.65881         3.86279         2.98168
   C       -0.36453         2.71007         2.05201
   S        1.24397         2.92120         1.22390
   C        0.22114         6.64536         0.11157
   S        1.46287         6.48679        -1.09177
   C       -0.59239         7.81391         0.02391
   C       -1.18110         8.61917         0.98170
   C       -1.94256         9.67243         0.41851
   S       -2.88066        10.86304         1.30412
   C       -2.18164        10.74006         2.98541
   C       -2.14201         9.31051         3.46974
   S       -0.78025         8.39916         2.67510
   C       -1.90627         9.68512        -0.97044
   S       -0.92363         8.38216        -1.57942
   C       -2.47638        10.58338        -1.92315
   C       -2.02588        10.56152        -3.22767
   C       -2.45503        11.39223        -4.25201
   C       -3.56449        12.32542        -4.03380
   C       -4.16632        12.50704        -2.83569
   S       -3.72843        11.68162        -1.39575
   C       -3.80586        12.93473        -5.29523
   C       -2.90380        12.43917        -6.23571
   C       -3.08884        13.02120        -7.50810
   C       -4.10679        13.92201        -7.50072
   S       -4.87564        14.10456        -5.96088
   C       -2.02359        11.48700        -5.60024
   C       -0.94196        10.88508        -6.26313
   C        0.07592        10.14871        -5.70947
   C        1.14780         9.66264        -6.46138
   C        2.21029         8.96284        -5.92507
   C        3.41107         8.56353        -6.61550
   C        3.72160         8.76279        -7.94097
   C        4.93291         8.36746        -8.53971
   N        5.89560         8.07385        -9.09505
   C        2.89442         9.38594        -8.89611
   N        2.29161         9.87901        -9.74160
   C        4.28684         7.90549        -5.64781
   C        3.62505         7.86325        -4.39863
   C        2.30536         8.51995        -4.52345
   O        1.48926         8.63765        -3.62535
   C        4.18330         7.28846        -3.28430
   C        5.45505         6.71925        -3.40869
   C        6.11626         6.78366        -4.65578
   C        5.55424         7.37135        -5.78232
   S        7.67505         6.01996        -4.58919
   C        7.41094         5.61310        -2.91368
   C        6.22360         6.03961        -2.42389
  Br        8.72496         4.66689        -1.97852
   H        6.53201         2.93042        -4.80446
   H        2.59537         5.49863        -6.46483
   H        3.61279         5.63579        -8.65886
   H        5.51264         5.21559       -10.16450
   H        7.49665         4.00180        -9.35216
   H        7.58739         3.18433        -7.02927
   H        3.37877         3.39919        -0.55771
   H       -1.50492         3.63681         3.63078
   H        0.20867         4.11775         3.59128
   H       -1.13216         2.60904         1.28415
   H       -0.27135         1.77405         2.60262
   H       -2.85215        11.34565         3.59541
   H       -1.18690        11.18620         2.98473
   H       -3.07717         8.78857         3.26661
   H       -1.92203         9.26462         4.53604
   H       -1.27151         9.82233        -3.44761
   H       -4.97154        13.21024        -2.69308
   H       -2.50933        12.79112        -8.38345
   H       -4.46885        14.50991        -8.32140
   H       -0.89220        11.07278        -7.33031
   H        0.11196         9.96301        -4.65128
   H        1.15377         9.88143        -7.52112
   H        3.65816         7.27810        -2.34210
   H        6.10047         7.39007        -6.71030
   H        5.89808         5.87470        -1.41280
*
