# ORCA input file
# SCF done       -211.570266541360          0.000973720776
! CAM-B3LYP def2-SVP def2/J RIJCOSX Grid4 TightSCF
%maxcore 5000
%tddft
    Mode sTDDFT
    Ethresh 5.0
    maxcore 5000
end

%pal
  nprocs 6
  end
* xyz 0 1
   C        0.13989        -4.04543         7.30368
   C       -0.09701        -3.04719         8.23719
   F       -0.33650        -3.39056         9.50662
   C       -0.08723        -1.69684         7.88391
   F       -0.32911        -0.76861         8.81632
   C        0.17447        -1.30704         6.58008
   C        0.42286        -2.29919         5.65225
   C        0.40112        -3.66200         5.99885
   C        0.64695        -4.45485         4.79411
   C        0.25430        -5.75481         4.61226
   C       -0.24126        -6.57767         5.64405
   N       -0.62892        -7.28967         6.45601
   C        0.21052        -6.37232         3.34481
   N        0.11883        -6.88239         2.32050
   C        1.07508        -3.53897         3.76139
   C        0.76056        -2.15887         4.21653
   O        0.82174        -1.14408         3.56492
   C        1.75753        -3.70966         2.59232
   C        2.54595        -4.78594         2.14150
   C        3.06445        -4.91113         0.85713
   C        3.88208        -6.02360         0.72003
   C        4.01685        -6.75268         1.92308
   S        3.13329        -6.06836         3.20432
   C        4.88021        -7.84561         1.69378
   C        5.30390        -7.81270         0.35175
   C        4.67759        -6.67427        -0.30669
   C        4.80225        -6.30683        -1.61373
   C        5.59581        -7.03524        -2.52561
   N        6.23761        -7.62848        -3.26722
   C        4.14253        -5.17644        -2.14219
   N        3.61350        -4.25587        -2.57417
   C        6.17858        -8.84719         0.03109
   C        6.41389        -9.67872         1.11608
   S        5.54218        -9.16809         2.55052
   C        7.25173       -10.82278         1.15515
   C        8.19760       -11.20663         0.21914
   C        8.84939       -12.38131         0.59019
   C        8.38242       -12.90615         1.81081
   S        7.16243       -11.94026         2.50993
   C        9.09229       -14.09619         2.09273
   C       10.02281       -14.31988         1.06222
   C        9.90269       -13.24640         0.08567
   C       10.63663       -13.08404        -1.05183
   C       11.64587       -13.99623        -1.42626
   N       12.46635       -14.73863        -1.72672
   C       10.44339       -11.98866        -1.92038
   N       10.29323       -11.09530        -2.62269
   C       10.77573       -15.47534         1.25118
   C       10.41886       -16.14785         2.40895
   S        9.13373       -15.31932         3.28316
   C       10.95875       -17.36692         2.90800
   C       10.41392       -18.03381         3.98287
   C       10.89043       -19.23381         4.49635
   C       12.06692       -19.89210         3.92669
   C       12.76202       -19.41441         2.86993
   S       12.36638       -17.96619         2.04307
   C       12.24854       -21.07176         4.69918
   C       11.25189       -21.16803         5.67552
   C       11.40334       -22.33404         6.46046
   C       12.47753       -23.06692         6.06616
   S       13.35054       -22.38639         4.73653
   C       10.38429       -20.02000         5.55986
   C        9.23278       -19.71027         6.30258
   C        8.66321       -20.49576         7.26655
   C        7.47897       -20.11668         7.91682
   C        6.81868       -20.87899         8.84847
   C        5.57602       -20.54753         9.50957
   C        4.86468       -19.37700         9.39902
   C        3.65804       -19.11770        10.08021
   N        2.67321       -18.83907        10.60166
   C        5.22369       -18.26671         8.60959
   N        5.44339       -17.32095         7.99412
   C        5.19618       -21.68718        10.33957
   C        6.20330       -22.68743        10.22564
   C        7.25635       -22.21739         9.30813
   O        8.26763       -22.81974         9.00055
   C        6.11740       -23.87689        10.88867
   C        4.99383       -24.13073        11.70742
   C        3.97958       -23.13779        11.82301
   C        4.10007       -21.91149        11.12873
   C        2.85877       -23.40358        12.63505
   C        2.74301       -24.59322        13.30144
   C        3.74308       -25.56987        13.18802
   C        4.84496       -25.34311        12.40855
   H        0.12464        -5.07544         7.62120
   H        0.18239        -0.26405         6.30645
   H        1.77370        -2.83480         1.94810
   H        2.82490        -4.21750         0.07133
   H        6.61594        -9.00696        -0.93694
   H        8.40325       -10.64503        -0.67319
   H       11.54021       -15.82872         0.58299
   H        9.54424       -17.58160         4.44150
   H       13.62211       -19.92131         2.46203
   H       10.77014       -22.63471         7.27435
   H       12.82548       -23.99202         6.48235
   H        8.74351       -18.77188         6.06864
   H        9.10128       -21.44241         7.53052
   H        7.05538       -19.16072         7.63695
   H        6.89536       -24.61897        10.78642
   H        3.31385       -21.18172        11.23734
   H        2.09157       -22.64800        12.71932
   H        1.87954       -24.78807        13.91961
   H        3.63596       -26.50309        13.72065
   H        5.61809       -26.09199        12.31712
*
