# ORCA input file
# SCF done       -192.923707103306          0.000543843286
! CAM-B3LYP def2-SVP def2/J RIJCOSX Grid4 TightSCF
%maxcore 5000
%tddft
    Mode sTDDFT
    Ethresh 5.0
    maxcore 5000
end

%pal
  nprocs 6
  end
* xyz 0 1
   C        0.58267         4.36802        -3.95035
   C       -0.39426         4.63803        -3.03076
   C       -0.30340         4.12349        -1.72880
   C        0.76180         3.34569        -1.36423
   C        1.78409         3.04485        -2.28689
   C        2.87945         2.22978        -1.91919
   C        3.85030         1.95303        -2.84337
   C        3.76683         2.50368        -4.15591
   C        2.71679         3.28719        -4.53977
   C        1.69287         3.57105        -3.60828
   C        4.95345         2.10102        -4.92723
   O        5.21083         2.32988        -6.08657
   C        5.83077         1.38329        -3.95307
   C        5.04976         1.12540        -2.76059
   C        5.23947         0.11559        -1.85292
   C        6.28036        -0.82895        -1.92871
   N        7.09939        -1.63341        -1.96324
   C        4.35433        -0.15897        -0.78881
   N        3.66644        -0.43209         0.08801
   C        7.13424         1.18248        -4.28610
   C        8.22947         0.86528        -3.45106
   C        8.35988         1.01972        -2.07899
   C        9.59807         0.59003        -1.61764
   C       10.42981         0.11049        -2.64759
   S        9.69386         0.21391        -4.17710
   C       11.63857        -0.34974        -2.06564
   C       11.56880        -0.16771        -0.67234
   C       10.28266         0.42729        -0.34533
   C        9.79129         0.73542         0.88858
   C       10.52903         0.52757         2.07337
   N       11.12763         0.37065         3.03816
   C        8.50181         1.28658         1.04793
   N        7.45367         1.73735         1.16179
   C       12.70850        -0.62565        -0.01132
   C       13.63721        -1.14638        -0.89089
   S       13.10324        -1.06998        -2.55749
   C       14.89704        -1.73807        -0.54555
   C       15.80679        -2.22068        -1.50312
   N       16.89140        -2.87300        -1.16702
   C       17.14475        -3.04286         0.14001
   C       16.29670        -2.45599         1.09537
   N       15.19156        -1.83704         0.75976
   C       18.27986        -3.85123         0.47876
   C       19.14962        -4.44104        -0.41764
   C       20.10843        -5.22127         0.22705
   C       19.96080        -5.21778         1.62615
   S       18.65443        -4.24819         2.14248
   C       20.94138        -6.07305         2.18848
   C       21.70589        -6.62469         1.13961
   C       21.22702        -6.08385        -0.12252
   C       21.72892        -6.32246        -1.36690
   C       22.85373        -7.14736        -1.58820
   N       23.77820        -7.79454        -1.78840
   C       21.17533        -5.73665        -2.52603
   N       20.73277        -5.26597        -3.47293
   C       22.65159        -7.54348         1.57878
   C       22.62193        -7.70323         2.95616
   S       21.42457        -6.64898         3.71364
   C       23.39438        -8.53009         3.80233
   C       24.01275        -9.70266         3.47555
   C       24.87275       -10.46657         4.36144
   C       25.51395        -9.98749         5.47410
   C       26.36505       -10.76365         6.28795
   N       27.06032       -11.34738         6.99050
   C       25.44311        -8.65462         5.93056
   N       25.44399        -7.58316         6.34390
   C       25.01013       -11.80614         3.80614
   C       24.32136       -11.84988         2.56068
   C       24.27439       -12.98242         1.80003
   C       24.92664       -14.14761         2.26099
   C       24.91322       -15.34550         1.51995
   C       25.54502       -16.46509         1.98942
   C       26.21923       -16.43468         3.21927
   C       26.25248       -15.28636         3.96289
   C       25.61228       -14.11495         3.50992
   C       25.64435       -12.92618         4.27491
   C       23.71044       -10.53990         2.28253
   O       23.03775       -10.25016         1.31665
   H        0.51849         4.76195        -4.95411
   H       -1.24176         5.24981        -3.30142
   H       -1.08281         4.34607        -1.01563
   H        0.83452         2.94432        -0.36422
   H        2.93034         1.85373        -0.90936
   H        2.66737         3.68625        -5.54198
   H        7.36451         1.34609        -5.33494
   H        7.59684         1.46091        -1.46412
   H       12.88153        -0.60155         1.04883
   H       15.63878        -2.08272        -2.56340
   H       16.51741        -2.50432         2.15386
   H       19.05351        -4.29756        -1.47801
   H       23.33780        -8.06844         0.94219
   H       23.44384        -8.20235         4.83442
   H       23.74692       -12.98765         0.85776
   H       24.39240       -15.36228         0.57379
   H       25.52836       -17.37986         1.41610
   H       26.71290       -17.32656         3.57495
   H       26.77176       -15.25801         4.90955
   H       26.16457       -12.93475         5.21966
*
