# ORCA input file
# SCF done       -184.867865048241          0.000558161366
! CAM-B3LYP def2-SVP def2/J RIJCOSX Grid4 TightSCF
%maxcore 5000
%tddft
    Mode sTDDFT
    Ethresh 5.0
    maxcore 5000
end

%pal
  nprocs 6
  end
* xyz 0 1
   C       -4.33677         0.99059        -4.65442
   C       -3.37029         0.01625        -4.63414
   C       -2.81366        -0.56703        -5.79157
   N       -2.31834        -1.08191        -6.69050
   C       -2.79221        -0.55776        -3.48255
   N       -2.26520        -1.08793        -2.61004
   C       -4.93590         1.55587        -5.86099
   C       -5.91773         2.50344        -5.48011
   C       -6.66475         3.21353        -6.38778
   C       -6.42719         2.97853        -7.74627
   C       -5.44350         2.03221        -8.12089
   C       -4.69134         1.31280        -7.19957
   S       -5.30896         1.90079        -9.84807
   C       -6.55835         3.10233       -10.04070
   C       -7.05268         3.57831        -8.87343
  Br       -7.08827         3.61407       -11.76492
   C       -5.97165         2.57776        -4.01049
   O       -6.71104         3.28707        -3.35385
   C       -4.95856         1.63508        -3.51566
   C       -4.64023         1.42693        -2.19558
   C       -5.17995         2.00913        -1.04492
   C       -4.68837         1.67454         0.24502
   O       -3.69012         0.78533         0.34781
   C       -3.22549         0.46148         1.64046
   C       -5.33695         2.34756         1.26826
   C       -6.33044         3.20282         0.79911
   S       -6.46764         3.17690        -0.92998
   C       -7.16845         4.03226         1.59049
   C       -8.15638         4.84860         0.99155
   C       -9.04439         5.67918         1.75832
   N       -9.92817         6.45292         1.12133
   C       -9.99915         6.44235        -0.18732
   C       -9.13020         5.59362        -0.94950
   N       -8.24964         4.84238        -0.34166
   C       -9.21013         5.57313        -2.36583
   N       -9.31818         5.59825        -3.50531
   C      -10.93556         7.28285        -0.83870
   N      -11.67929         7.94849        -1.40014
   C       -9.02855         5.71301         3.17720
   C       -7.97202         4.98171         3.77318
   C       -7.07333         4.14686         2.99731
   N       -6.15069         3.57308         3.77043
   S       -6.36225         4.05112         5.28952
   N       -7.62850         4.99600         5.05908
   C      -10.00455         6.47273         3.87323
   C      -10.38030         6.41736         5.23371
   O       -9.86698         5.49337         6.05363
   C      -10.38125         5.41212         7.36441
   C      -11.36317         7.35161         5.56375
   C      -11.78677         8.11228         4.48633
   S      -10.95302         7.65201         3.02867
   C      -12.71164         9.17547         4.43334
   C      -13.64500         9.58257         5.34174
   C      -14.23361         8.97024         6.50983
   C      -14.43090         7.62844         6.72104
   C      -15.06963         7.09604         7.85863
   N      -15.54844         6.60501         8.77936
   C      -14.08264         6.62466         5.79601
   N      -13.84432         5.76390         5.07484
   C      -14.82317        10.03840         7.31237
   C      -14.80935        11.23630         6.55437
   C      -14.15192        10.98278         5.25722
   O      -14.00333        11.75095         4.33693
   C      -15.33155        12.41508         7.02786
   C      -15.88242        12.41483         8.31385
   C      -15.88044        11.21640         9.06724
   C      -15.36075        10.02106         8.58475
   S      -16.59865        11.44442        10.63198
   C      -16.89176        13.12230        10.25814
   C      -16.47273        13.49471         9.02544
  Br      -17.71811        14.22259        11.53170
   H       -7.40512         3.92569        -6.05802
   H       -3.95446         0.60449        -7.53914
   H       -7.82563         4.32185        -8.80582
   H       -3.85074         0.71756        -1.97714
   H       -2.43420        -0.27035         1.49097
   H       -4.02229         0.02406         2.24848
   H       -2.82293         1.34274         2.14787
   H       -5.12183         2.24921         2.31555
   H       -9.87170         4.56864         7.82605
   H      -11.46008         5.22862         7.35718
   H      -10.16558         6.32033         7.93511
   H      -11.72632         7.50240         6.56366
   H      -12.61842         9.82522         3.56772
   H      -15.31601        13.30979         6.42591
   H      -15.37702         9.13458         9.19693
   H      -16.57412        14.48976         8.63262
*
