# ORCA input file
# SCF done       -214.799613143109          0.000295415098
! CAM-B3LYP def2-SVP def2/J RIJCOSX Grid4 TightSCF
%maxcore 5000
%tddft
    Mode sTDDFT
    Ethresh 5.0
    maxcore 5000
end

%pal
  nprocs 6
  end
* xyz 0 1
   C       -9.30024        -7.64497       -10.84991
   C       -8.50451        -7.94619       -11.91912
   F       -9.00136        -7.90188       -13.16255
   C       -7.15504        -8.30610       -11.72990
   F       -6.39803        -8.59715       -12.79686
   C       -6.61966        -8.35900       -10.47358
   C       -7.41392        -8.05412        -9.35114
   C       -8.77846        -7.68988        -9.54113
   C       -9.59454        -7.37938        -8.42995
   C       -9.06135        -7.42701        -7.16811
   C       -7.69919        -7.79399        -6.98735
   C       -6.88859        -8.10456        -8.04072
   C       -7.37038        -7.78928        -5.54622
   O       -6.31946        -8.12826        -5.05130
   C       -8.62628        -7.39364        -4.85535
   C       -9.64889        -7.15893        -5.85970
   C      -10.91975        -6.69747        -5.63869
   C      -11.46495        -6.37932        -4.37654
   N      -11.98179        -6.08936        -3.39284
   C      -11.86297        -6.45725        -6.66021
   N      -12.67489        -6.24699        -7.44403
   C       -8.81963        -7.42805        -3.51048
   C       -7.81182        -7.53529        -2.49284
   C       -6.57740        -6.84601        -2.56524
   O       -6.42849        -5.96066        -3.57205
   C       -5.19604        -5.29496        -3.71618
   C       -5.64195        -7.05986        -1.56565
   C       -5.89475        -7.90735        -0.48676
   C       -7.17983        -8.48740        -0.34213
   C       -8.10340        -8.29195        -1.35226
   O       -7.43520        -9.12980         0.81529
   C       -8.60645        -9.90696         0.92197
   C       -4.85989        -8.15487         0.48121
   C       -4.60604        -9.31936         1.20628
   C       -3.49077        -9.17976         2.11292
   N       -3.12939       -10.19466         2.90272
   C       -3.79954       -11.31997         2.79884
   C       -3.37812       -12.42689         3.68787
   O       -2.50343       -12.29940         4.52221
   C       -4.08963       -13.69840         3.47375
   C       -5.07939       -13.84940         2.58756
   C       -5.58909       -12.76163         1.73041
   O       -6.55208       -12.91007         1.00757
   C       -4.86019       -11.47525         1.85172
   N       -5.23968       -10.48960         1.07486
   C       -2.88140        -7.91915         2.05496
   S       -3.69505        -6.94240         0.88607
   C       -1.78418        -7.44053         2.83451
   C       -1.29708        -6.11803         2.67336
   O       -1.91321        -5.37573         1.71881
   C       -1.47054        -4.06048         1.47454
   C       -0.27215        -5.67564         3.47860
   C        0.34983        -6.50525         4.42592
   C       -0.14077        -7.82791         4.58371
   C       -1.19158        -8.26162         3.79525
   O        0.42207        -8.58913         5.54509
   C       -0.08479        -9.89083         5.77439
   C        1.37361        -5.92024         5.23439
   C        2.39458        -6.44580         5.96371
   C        3.01846        -5.58443         7.00977
   O        2.86674        -4.39261         7.15003
   C        3.80956        -6.50318         7.85215
   C        4.47235        -6.24450         9.01678
   C        5.14028        -7.30119         9.67568
   C        5.10614        -8.60925         9.11098
   C        5.76707        -9.65994         9.77846
   C        6.43153        -9.42310        10.94900
   C        6.46566        -8.12897        11.50539
   C        5.83427        -7.08904        10.88272
   F        7.12387        -7.92582        12.65526
   F        7.05878       -10.42399        11.58158
   C        4.41961        -8.84405         7.89716
   C        3.78294        -7.80433         7.27418
   C        3.02395        -7.74355         6.02776
   C        3.07457        -8.66931         5.01904
   C        2.52271        -8.44540         3.74295
   N        2.10217        -8.28030         2.68777
   C        3.73855        -9.90781         5.12017
   N        4.24683       -10.93623         5.16410
   H      -10.33099        -7.37073       -11.01190
   H       -5.58527        -8.63730       -10.34584
   H      -10.62475        -7.11578        -8.60627
   H       -5.85904        -8.38411        -7.87600
   H       -9.83851        -7.42482        -3.14170
   H       -4.97413        -4.66844        -2.84633
   H       -5.30630        -4.66388        -4.59665
   H       -4.38145        -6.00553        -3.88007
   H       -4.66815        -6.59923        -1.61916
   H       -9.07525        -8.75588        -1.29569
   H       -9.50806        -9.28686         0.88902
   H       -8.54162       -10.39775         1.89115
   H       -8.64466       -10.66993         0.14090
   H       -3.75969       -14.52040         4.09480
   H       -5.58256       -14.79935         2.46552
   H       -2.09292        -3.68875         0.66252
   H       -0.42152        -4.04620         1.16591
   H       -1.60506        -3.42472         2.35435
   H        0.10706        -4.67141         3.37505
   H       -1.58022        -9.25996         3.89946
   H        0.51255       -10.29460         6.59038
   H        0.02576       -10.52698         4.89324
   H       -1.13611        -9.86715         6.06862
   H        1.29079        -4.84074         5.34378
   H        4.48486        -5.24847         9.43259
   H        5.75361       -10.65636         9.36515
   H        5.86918        -6.10414        11.32146
   H        4.40571        -9.84455         7.49496
*
