# ORCA input file
# SCF done       -189.867932859824          0.003241311783
! CAM-B3LYP def2-SVP def2/J RIJCOSX Grid4 TightSCF
%maxcore 5000
%tddft
    Mode sTDDFT
    Ethresh 5.0
    maxcore 5000
end

%pal
  nprocs 6
  end
* xyz 0 1
   C       10.89642        -9.25979       -11.24637
   C        9.93139        -9.89163       -11.98550
   C       10.14083       -10.95084       -12.88715
   N       10.24518       -11.81688       -13.63301
   C        8.58643        -9.48066       -11.86482
   N        7.49284        -9.15230       -11.76344
   N       12.23020        -9.51209       -11.22312
   C       12.87609       -10.53207       -12.01427
   C       12.98878        -8.72042       -10.36914
   O       14.18573        -8.83294       -10.24525
   C       12.13089        -7.76870        -9.66550
   S       10.46580        -7.94934       -10.16034
   C       12.62127        -6.89981        -8.74340
   C       11.90605        -5.95916        -7.97951
   C       12.44428        -5.13731        -6.99293
   C       11.47974        -4.34368        -6.38912
   C       10.18810        -4.54747        -6.92570
   S       10.16983        -5.71941        -8.16211
   C        9.27127        -3.72094        -6.23994
   C        9.97942        -2.99492        -5.25711
   C       11.38580        -3.35629        -5.32375
   C       12.39999        -2.88048        -4.54633
   C       12.18532        -1.92500        -3.52985
   N       12.01923        -1.15047        -2.70114
   C       13.73331        -3.31373        -4.70787
   N       14.81684        -3.66572        -4.83808
   C        9.15538        -2.17362        -4.50086
   C        7.82556        -2.26115        -4.89936
   S        7.59954        -3.36636        -6.24357
   C        6.71504        -1.60089        -4.30965
   C        5.41059        -1.74169        -4.83161
   C        4.26455        -1.14267        -4.21536
   N        3.04967        -1.32408        -4.76924
   C        2.93197        -2.03125        -5.84624
   C        4.06768        -2.62626        -6.45657
   N        5.24892        -2.47537        -5.95055
   F        3.95107        -3.35085        -7.56234
   F        1.71838        -2.18238        -6.36291
   C        4.35166        -0.37862        -3.03051
   C        5.66130        -0.19633        -2.52405
   C        6.81964        -0.79069        -3.15364
   N        7.94000        -0.48590        -2.49721
   S        7.59014         0.44146        -1.23903
   N        6.00306         0.50926        -1.44510
   C        3.19299         0.13430        -2.38982
   C        3.14749         0.82407        -1.18248
   C        1.84828         1.14338        -0.81596
   C        0.89032         0.70288        -1.75646
   S        1.59810        -0.11101        -3.08098
   C       -0.39617         1.05768        -1.29049
   C       -0.25235         1.72197        -0.04859
   C        1.16178         1.79431         0.28659
   C        1.72155         2.33926         1.40461
   C        0.93980         2.93764         2.41536
   N        0.30245         3.42111         3.23688
   C        3.11468         2.33268         1.62848
   N        4.24411         2.32765         1.82064
   C       -1.46928         2.09191         0.49299
   C       -2.54799         1.71832        -0.31570
   S       -2.01982         0.89813        -1.78100
   C       -3.88217         1.97465         0.04836
   C       -5.04459         1.66979        -0.59722
   C       -5.21860         0.99566        -1.86791
   O       -4.33661         0.58892        -2.60255
   N       -6.56090         0.85650        -2.17343
   C       -7.43993         1.35721        -1.26239
   C       -8.80905         1.33784        -1.32250
   C       -9.58431         0.78518        -2.35715
   N      -10.27138         0.35343        -3.16918
   C       -9.55928         1.90660        -0.27109
   N      -10.17403         2.36549         0.58090
   S       -6.60550         2.07956         0.09350
   C       -6.95192         0.20015        -3.39860
   H       12.73121       -10.34660       -13.07879
   H       12.48669       -11.51966       -11.76596
   H       13.93896       -10.48624       -11.77519
   H       13.68993        -6.95434        -8.57152
   H       13.48938        -5.14643        -6.74138
   H        9.46597        -1.53879        -3.69166
   H        4.03665         1.05700        -0.62622
   H       -1.60164         2.60403         1.42927
   H       -3.98918         2.48904         0.99680
   H       -6.03229        -0.09047        -3.90719
   H       -7.52398         0.87643        -4.03428
   H       -7.55046        -0.68647        -3.18830
*
