# ORCA input file
# SCF done       -176.975669411921          0.000890548794
! CAM-B3LYP def2-SVP def2/J RIJCOSX Grid4 TightSCF
%maxcore 5000
%tddft
    Mode sTDDFT
    Ethresh 5.0
    maxcore 5000
end

%pal
  nprocs 6
  end
* xyz 0 1
   C       -2.09113        -1.75782        -4.06061
   O       -2.08486        -2.95251        -4.28227
   C       -1.84765        -0.68627        -5.04689
   C       -1.93296         0.56429        -4.40994
   C       -1.74120         1.72036        -5.14834
   C       -1.46775         1.60622        -6.50704
   C       -1.38403         0.35842        -7.12892
   C       -1.57543        -0.80430        -6.39358
  Br       -1.00853         0.23322        -8.97634
  Br       -1.20821         3.18542        -7.51288
   C       -2.22955         0.35449        -2.99287
   C       -2.36160         1.35069        -2.06166
   C       -2.23707         2.72661        -2.35409
   N       -2.14845         3.85761        -2.52671
   C       -2.63192         1.16990        -0.68816
   N       -2.84494         1.11381         0.43900
   C       -2.33984        -1.07754        -2.78229
   C       -2.64169        -1.68990        -1.59281
   C       -2.77598        -3.04942        -1.27033
   C       -3.10707        -3.45528         0.02822
   C       -3.18693        -4.82768         0.14456
   C       -2.91587        -5.50541        -1.06286
   S       -2.56446        -4.41743        -2.35460
   C       -2.98828        -6.88819        -0.94981
   C       -3.31437        -7.29392         0.33587
   S       -3.54165        -5.93426         1.42715
   C       -3.46821        -8.61835         0.83903
   C       -3.27795        -9.80157         0.08168
   C       -3.43117       -11.11646         0.64984
   N       -3.22156       -12.19543        -0.13531
   C       -2.89504       -12.04221        -1.37500
   C       -2.74969       -10.74776        -1.93592
   N       -2.93580        -9.68961        -1.21992
   F       -2.41605       -10.57927        -3.21141
   F       -2.69725       -13.13828        -2.10078
   C       -3.79145       -11.32219         2.00482
   C       -3.98854       -10.14179         2.75252
   C       -3.82906        -8.82909         2.18749
   N       -4.06434        -7.87618         3.09106
   S       -4.44488        -8.54994         4.49296
   N       -4.33231       -10.08307         4.04031
   C       -3.95342       -12.59656         2.62202
   C       -3.79456       -13.85560         2.06199
   C       -4.03928       -14.86349         2.98362
   C       -4.38486       -14.40014         4.26594
   S       -4.41049       -12.67403         4.31624
   C       -4.60269       -15.41629         5.18726
   C       -4.46962       -16.67499         4.62132
   S       -4.01028       -16.58558         2.92355
   C       -4.56351       -17.89823         5.32249
   C       -4.69360       -19.16325         4.83597
   C       -4.27605       -20.32132         5.67099
   O       -4.04877       -20.32318         6.85673
   C       -4.13818       -21.44398         4.71495
   C       -4.57740       -21.03612         3.44118
   C       -5.08044       -19.66776         3.53523
   C       -5.99221       -19.09738         2.68869
   C       -6.68264       -17.90566         2.99852
   N       -7.29979       -16.97286         3.25391
   C       -6.41518       -19.69026         1.48136
   N       -6.77236       -20.13616         0.48679
   C       -4.50905       -21.91169         2.37196
   C       -4.00539       -23.18892         2.59230
   C       -3.58603       -23.59269         3.86227
   C       -3.65029       -22.71497         4.93728
  Br       -2.91823       -25.33907         4.13597
  Br       -3.89056       -24.38273         1.13215
   H       -1.79825         2.70184        -4.70673
   H       -1.51390        -1.77497        -6.86064
   H       -2.81326        -1.03969        -0.74345
   H       -3.27444        -2.75735         0.82850
   H       -2.81498        -7.57948        -1.75102
   H       -3.51962       -14.00801         1.03688
   H       -4.87423       -15.26473         6.21574
   H       -4.42254       -17.83009         6.39730
   H       -4.82140       -21.62757         1.37970
   H       -3.32681       -23.01813         5.92094
*
