# ORCA input file
# SCF done       -219.511149204793          0.000302296931
! CAM-B3LYP def2-SVP def2/J RIJCOSX Grid4 TightSCF
%maxcore 5000
%tddft
    Mode sTDDFT
    Ethresh 5.0
    maxcore 5000
end

%pal
  nprocs 6
  end
* xyz 0 1
   C       -3.46917        -4.25153        -8.07757
   C       -2.91374        -3.41766        -9.03302
   C       -1.53539        -3.19238        -9.00063
   C       -0.94729        -2.34473        -9.97173
   N       -0.47814        -1.65930       -10.75968
   C       -0.71915        -3.79215        -8.02326
   C        0.67432        -3.54477        -8.01494
   N        1.80405        -3.35867        -7.98983
   C       -1.28311        -4.63304        -7.06190
   C       -2.64326        -4.84826        -7.10644
   C       -3.46991        -5.69286        -6.21577
   O       -3.06200        -6.33809        -5.26682
   C       -4.83978        -5.58593        -6.71648
   C       -4.85098        -4.68229        -7.84698
   C       -5.93287        -4.26515        -8.57947
   C       -5.85569        -3.36836        -9.66648
   N       -5.86008        -2.64436       -10.55700
   C       -7.27331        -4.64785        -8.36123
   N       -8.38744        -4.90399        -8.25034
   C       -5.93109        -6.25759        -6.21172
   C       -6.03147        -7.14182        -5.13523
   S       -4.75666        -7.64571        -4.04937
   C       -5.86123        -8.64216        -3.16341
   C       -7.15002        -8.58946        -3.69137
   C       -7.24150        -7.75460        -4.78115
   C       -5.43125        -9.39154        -2.04498
   C       -4.16812        -9.41893        -1.48153
   C       -4.07161       -10.25469        -0.37632
   C       -5.25954       -10.89548        -0.06579
   S       -6.51716       -10.44053        -1.17306
   C       -5.49563       -11.81060         0.99324
   S       -7.01579       -12.63289         1.17243
   C       -6.45722       -13.47128         2.59210
   C       -5.15538       -13.10875         2.88599
   C       -4.61859       -12.18585         1.99498
   C       -7.32098       -14.39284         3.24753
   C       -7.00695       -15.01727         4.40715
   C       -7.76992       -15.98427         5.11793
   S       -7.26856       -16.32829         6.75220
   C       -8.51639       -17.52344         6.95009
   C       -9.27487       -17.63411         5.79639
   C       -8.85204       -16.77516         4.76481
   C       -9.49628       -16.77510         3.41332
   C      -10.33985       -18.04081         3.20106
   C      -11.10958       -17.89951         1.98517
   N      -11.71862       -17.74736         1.03115
   C      -11.27009       -18.24484         4.41320
   C      -12.20196       -19.32293         4.16745
   N      -12.91469       -20.19696         3.98796
   C      -10.42740       -18.57687         5.65175
   C       -8.59777       -18.22789         8.18146
   S       -9.56937       -19.65792         8.40602
   C       -9.01387       -19.83521        10.04574
   C       -8.13830       -18.82297        10.37851
   C       -7.90118       -17.93144         9.33678
   C       -9.43311       -20.92739        10.84743
   C      -10.22388       -22.00054        10.48753
   C      -10.39635       -22.92782        11.51128
   C       -9.74951       -22.58179        12.68107
   S       -8.90976       -21.06505        12.50038
   C       -9.69264       -23.29722        13.90155
   S      -10.36837       -24.88584        14.05402
   C       -9.85383       -24.99713        15.71925
   C       -9.20351       -23.83316        16.10426
   C       -9.10896       -22.89155        15.09242
   C      -10.06464       -26.19185        16.43501
   C       -9.78741       -26.37655        17.75866
   C       -9.97769       -27.58085        18.46326
   C      -10.07429       -28.87278        18.01341
   C      -10.68747       -29.88294        18.91012
   O      -10.97005       -29.74924        20.07845
   C      -10.92227       -31.07374        18.05864
   C      -11.56679       -32.24909        18.37847
   C      -11.69351       -33.22162        17.38441
   C      -11.17826       -32.98623        16.09569
   C      -10.51774       -31.79502        15.78640
   C      -10.38463       -30.83974        16.77860
   C       -9.72833       -29.52801        16.77523
   C       -8.76998       -29.15256        15.86735
   C       -7.96269       -28.00532        15.99431
   N       -7.25673       -27.10240        16.05622
   C       -8.41786       -29.90946        14.73116
   N       -8.10559       -30.47519        13.78251
   C      -11.33470       -33.97393        15.09203
   N      -11.46006       -34.76432        14.27326
   C      -12.34756       -34.44382        17.67077
   N      -12.88002       -35.42619        17.92154
   H       -3.50364        -2.94015        -9.79875
   H       -0.67203        -5.10245        -6.30601
   H       -6.87554        -6.09752        -6.71752
   H       -7.97166        -9.14525        -3.27468
   H       -8.14936        -7.57162        -5.32887
   H       -3.35286        -8.83937        -1.87682
   H       -3.16612       -10.40022         0.18326
   H       -4.60629       -13.50893         3.71850
   H       -3.62074       -11.79487         2.07398
   H       -8.27396       -14.55397         2.76899
   H       -6.07515       -14.75494         4.89028
   H       -8.72857       -16.71702         2.63748
   H      -10.14230       -15.89557         3.31049
   H       -9.68738       -18.91676         3.09843
   H      -11.84372       -17.32493         4.58223
   H      -10.05196       -19.60393         5.57314
   H      -11.05972       -18.53683         6.54302
   H       -7.68407       -18.75108        11.35067
   H       -7.24123       -17.08520         9.40825
   H      -10.64879       -22.09960         9.50433
   H      -10.97217       -23.83144        11.41774
   H       -8.79436       -23.69227        17.08747
   H       -8.63014       -21.93385        15.19653
   H      -10.51632       -27.00233        15.87662
   H       -9.46918       -25.52690        18.34546
   H      -10.13094       -27.48456        19.53467
   H      -11.96254       -32.41256        19.36929
   H      -10.13986       -31.64694        14.78713
*
