# ORCA input file
# SCF done       -229.452078464015          0.000835742464
! CAM-B3LYP def2-SVP def2/J RIJCOSX Grid4 TightSCF
%maxcore 5000
%tddft
    Mode sTDDFT
    Ethresh 5.0
    maxcore 5000
end

%pal
  nprocs 6
  end
* xyz 0 1
   C       -5.80933        -5.82229       -12.89918
   C       -5.69305        -5.07427       -14.05944
   C       -4.42519        -4.91034       -14.62086
   C       -4.28330        -4.14628       -15.80546
   N       -4.17556        -3.52734       -16.76266
   C       -3.28392        -5.48755       -14.03159
   C       -2.01222        -5.30623       -14.62525
   N       -0.97370        -5.17086       -15.08880
   C       -3.40607        -6.23574       -12.85977
   C       -4.66306        -6.38894       -12.31589
   C       -5.03588        -7.12512       -11.08300
   O       -4.25159        -7.70490       -10.36347
   C       -6.49371        -6.93195       -10.93212
   C       -6.96815        -6.17868       -12.08152
   C       -8.26994        -5.90699       -12.41576
   C       -8.65671        -5.18922       -13.56789
   N       -9.03607        -4.61089       -14.48365
   C       -9.41568        -6.31893       -11.70088
   N      -10.40543        -6.62120       -11.20240
   C       -7.29460        -7.23129        -9.86003
   C       -7.10647        -8.03373        -8.69931
   C       -8.06203        -7.88402        -7.66494
   C       -7.98031        -8.65710        -6.54172
   C       -6.95800        -9.62043        -6.40896
   C       -6.01838        -9.78701        -7.42147
   C       -6.09430        -9.00066        -8.54833
   C       -7.15051       -10.32225        -5.16920
   C       -8.29162        -9.80526        -4.52497
   C       -8.85701        -8.64089        -5.30633
   C       -8.59586        -7.29262        -4.59251
   C       -9.22086        -7.14089        -3.21231
   C      -10.34351        -8.82678        -5.64156
   C      -10.60254       -10.09342        -6.44924
   C       -8.76129       -10.37792        -3.36968
   C       -8.07835       -11.47017        -2.80509
   C       -6.91035       -11.93748        -3.42764
   C       -6.45395       -11.38163        -4.60241
   N       -8.55195       -12.04086        -1.65257
   C       -9.98053       -12.00589        -1.29470
   N      -10.28460       -13.25427        -0.62712
   C       -9.03072       -13.55147         0.03097
   N       -8.85179       -14.91916         0.46867
   C       -7.42360       -15.18564         0.52469
   C       -6.58873       -13.90910         0.76167
   N       -6.69827       -12.96218        -0.33170
   C       -7.95566       -13.19403        -1.02363
   N       -5.29407       -14.50925         0.97771
   C       -5.56323       -15.63538         1.86806
   N       -6.94375       -16.01668         1.59735
   C       -7.39812       -17.29905         1.73990
   C       -6.81827       -18.26276         2.47556
   C       -7.31086       -19.61202         2.62396
   C       -6.49373       -20.55234         3.27298
   C       -6.89749       -21.85960         3.37707
   C       -8.13744       -22.26645         2.85442
   C       -8.97226       -21.34125         2.23941
   C       -8.55518       -20.03295         2.12947
   C       -8.27335       -23.68665         3.04893
   C       -7.12162       -24.16711         3.70497
   C       -6.18381       -23.02627         4.02648
   C       -4.78574       -23.25185         3.43107
   C       -4.81822       -23.40833         1.91486
   C       -6.12320       -22.73529         5.54449
   C       -5.61081       -23.87194         6.41904
   C       -6.96332       -25.51067         3.92610
   C       -7.94568       -26.40962         3.47237
   C       -9.11150       -25.90916         2.86815
   C       -9.28545       -24.56012         2.66455
   C       -7.75175       -27.81385         3.66902
   C       -8.23082       -28.84399         2.91891
   C       -8.29131       -30.21285         3.48592
   O       -7.77713       -30.61036         4.50507
   C       -9.16616       -30.97566         2.56083
   C       -9.63995       -32.26356         2.68970
   C      -10.48638       -32.75691         1.69472
   C      -10.84034       -31.94531         0.59982
   C      -10.34517       -30.64594         0.47271
   C       -9.50040       -30.16488         1.45797
   C       -8.80579       -28.88372         1.59107
   C       -8.53160       -28.02762         0.55693
   C       -7.61504       -26.95909         0.64963
   N       -6.82929       -26.12285         0.64111
   C       -9.05576       -28.17397        -0.74337
   N       -9.47793       -28.24664        -1.80813
   C      -11.71842       -32.45434        -0.38872
   N      -12.43045       -32.85443        -1.19089
   C      -10.99520       -34.07429         1.78974
   N      -11.39801       -35.14214         1.88471
   H       -6.54139        -4.61228       -14.53830
   H       -2.54243        -6.68281       -12.39116
   H       -8.26956        -6.75619        -9.88154
   H       -8.85128        -7.15460        -7.77951
   H       -5.24164       -10.53088        -7.33051
   H       -5.37316        -9.13853        -9.33459
   H       -8.96707        -6.49738        -5.24276
   H       -7.51376        -7.16646        -4.50143
   H      -10.29984        -7.26501        -3.24881
   H       -9.01019        -6.14381        -2.83169
   H       -8.80304        -7.86318        -2.51645
   H      -10.68981        -7.95949        -6.20679
   H      -10.91543        -8.87235        -4.71392
   H      -10.07526       -10.05897        -7.39973
   H      -11.66589       -10.19799        -6.65105
   H      -10.26566       -10.97220        -5.90308
   H       -9.64879       -10.00006        -2.88964
   H       -6.37151       -12.76757        -3.00078
   H       -5.57190       -11.77851        -5.08190
   H      -10.61070       -11.86799        -2.17561
   H      -10.15920       -11.18560        -0.58605
   H      -10.49464       -13.99099        -1.29561
   H       -8.94266       -12.81511         0.84851
   H       -9.29244       -15.07312         1.36960
   H       -7.12797       -15.62331        -0.44747
   H       -6.96555       -13.41233         1.67944
   H       -5.89722       -13.03908        -0.94849
   H       -7.88619       -14.02240        -1.75999
   H       -4.61764       -13.86533         1.37127
   H       -5.46480       -15.37695         2.93603
   H       -4.86955       -16.45387         1.63471
   H       -8.32989       -17.46371         1.21947
   H       -5.88722       -18.05027         2.98210
   H       -5.53756       -20.23674         3.66593
   H       -9.93158       -21.64303         1.84597
   H       -9.20525       -19.31816         1.64974
   H       -4.34933       -24.14897         3.87172
   H       -4.15111       -22.40377         3.69847
   H       -5.43507       -24.25507         1.62516
   H       -3.81176       -23.57119         1.53621
   H       -5.22166       -22.51415         1.44469
   H       -7.13008       -22.46559         5.87478
   H       -5.48571       -21.85985         5.68703
   H       -6.28305       -24.72464         6.38062
   H       -5.55505       -23.53397         7.45173
   H       -4.61690       -24.18949         6.11562
   H       -6.06769       -25.90654         4.37982
   H       -9.89572       -26.59889         2.58910
   H      -10.18515       -24.18796         2.19831
   H       -7.20194       -28.11004         4.55729
   H       -9.36473       -32.87328         3.53685
   H      -10.63818       -30.04882        -0.37657
*
