# ORCA input file
# SCF done       -222.378449633693          0.002850499169
! CAM-B3LYP def2-SVP def2/J RIJCOSX Grid4 TightSCF
%maxcore 5000
%tddft
    Mode sTDDFT
    Ethresh 5.0
    maxcore 5000
end

%pal
  nprocs 6
  end
* xyz 0 1
   C       -8.05587        -5.08219         3.33467
   C       -7.26254        -6.01427         3.98165
   C       -6.08435        -6.43460         3.35825
   C       -5.25765        -7.38669         4.00304
   N       -4.59093        -8.15738         4.52559
   C       -5.70263        -5.93151         2.10067
   C       -4.51022        -6.37827         1.48540
   N       -3.55160        -6.72239         0.95957
   C       -6.50444        -4.98834         1.45475
   C       -7.66078        -4.58164         2.08287
   C       -8.65916        -3.59941         1.60116
   O       -8.55924        -2.99604         0.54497
   C       -9.68841        -3.52676         2.64424
   C       -9.33329        -4.46094         3.69254
   C      -10.06051        -4.79659         4.81023
   C       -9.62749        -5.72036         5.78393
   N       -9.33759        -6.45441         6.61830
   C      -11.34297        -4.32318         5.15858
   N      -12.39162        -4.02375         5.52182
   C      -10.79980        -2.70211         2.74254
   C      -11.42132        -1.82145         1.85059
   C      -11.07386        -1.58562         0.52673
   C      -11.76667        -0.76842        -0.33676
   C      -12.98457        -0.05483         0.05623
   C      -13.50417        -0.09564         1.30428
   S      -12.82656        -1.01416         2.58226
   C      -13.41141         0.61949        -1.11657
   C      -12.53586         0.34834        -2.18224
   C      -12.92426         1.03317        -3.35976
   C      -14.04418         1.77167        -3.16417
   S      -14.68188         1.68033        -1.55404
   C      -11.49193        -0.50690        -1.70928
   C      -10.33998        -0.97494        -2.37903
   C      -10.13319        -0.92373        -3.71975
   C       -8.92553        -1.27872        -4.40418
   C       -8.91553        -1.25806        -5.78875
   C       -7.74093        -1.54067        -6.50373
   C       -7.47072        -1.57499        -7.87079
   C       -8.39372        -1.32262        -9.01040
   C       -9.56072        -2.33172        -9.02090
   N      -10.03701        -2.48750       -10.38084
   C       -8.89809         0.13306        -9.00900
   N       -9.64088         0.41310       -10.22897
   C       -6.07956        -1.92462        -8.01089
   C       -5.30621        -2.07215        -9.10414
   C       -3.85467        -2.35628        -8.96982
   C       -3.41752        -2.78507        -7.60123
   C       -4.20025        -2.60479        -6.51440
   C       -5.52173        -2.13688        -6.66618
   C       -6.53531        -1.88132        -5.76125
   C       -6.56831        -1.90542        -4.34872
   C       -7.72147        -1.61122        -3.69727
   C       -3.08937        -1.05779        -9.01426
   C       -1.87655        -0.92241        -9.57245
   C       -1.04552         0.24344        -9.47761
   C       -1.26427         1.28581        -8.60426
   C       -0.45076         2.40461        -8.48437
   C        0.73760         2.57894        -9.31240
   C        1.15353         1.68015       -10.23591
   S        0.33024         0.21381       -10.55699
   C        1.28594         3.83446        -8.92851
   C        0.50104         4.42345        -7.93593
   C        1.01512         5.67972        -7.54723
   C        2.14446         5.99756        -8.23520
   S        2.63266         4.79912        -9.37849
   C       -0.59971         3.53564        -7.63390
   C       -1.67491         3.71201        -6.76650
   C       -1.92144         4.79989        -5.95263
   C       -3.02843         4.95381        -5.12694
   C       -4.26050         4.30506        -5.07154
   C       -5.00738         4.40493        -3.80376
   O       -4.69479         5.02077        -2.80603
   C       -6.23359         3.58747        -3.99007
   C       -7.29154         3.41042        -3.12673
   C       -8.42453         2.74243        -3.60016
   C       -8.45925         2.27793        -4.92805
   C       -7.35223         2.40477        -5.77115
   C       -6.23227         3.06374        -5.29534
   C       -5.01852         3.51658        -5.98640
   C       -4.82632         3.32720        -7.34795
   C       -3.99808         4.13420        -8.14323
   N       -3.39174         4.80988        -8.84780
   C       -5.42769         2.29167        -8.07409
   N       -5.79851         1.38660        -8.68345
   C       -9.67100         1.78261        -5.45514
   N      -10.67002         1.45479        -5.91280
   C       -9.54658         2.57720        -2.75682
   N      -10.44312         2.45199        -2.05344
   H       -7.51779        -6.42488         4.94506
   H       -6.22859        -4.59029         0.48984
   H      -11.30736        -2.75200         3.69917
   H      -10.19509        -2.09883         0.16591
   H      -14.39317         0.44729         1.58451
   H      -12.40466         1.00915        -4.29953
   H      -14.55358         2.38890        -3.87837
   H       -9.58040        -1.40547        -1.74206
   H      -10.94048        -0.58695        -4.35368
   H       -9.82519        -1.02224        -6.31857
   H       -7.84762        -1.47870        -9.94516
   H      -10.33816        -1.99418        -8.31819
   H       -9.19621        -3.30572        -8.67575
   H      -10.35225        -1.58073       -10.71629
   H      -10.81743        -3.13420       -10.41319
   H       -8.02223         0.79105        -8.88213
   H       -9.57250         0.29575        -8.16486
   H       -9.00981         0.41326       -11.02462
   H      -10.07322         1.32906       -10.17456
   H       -5.68526        -1.92028       -10.10376
   H       -3.50196        -3.03644        -9.74900
   H       -2.40849        -3.15629        -7.51617
   H       -3.83930        -2.85980        -5.52830
   H       -5.67183        -2.15631        -3.80030
   H       -7.74046        -1.62520        -2.61904
   H       -3.56399        -0.24969        -8.47906
   H       -1.46390        -1.74078       -10.14876
   H       -2.12863         1.20487        -7.96186
   H        2.03613         1.82905       -10.83719
   H        0.58971         6.33228        -6.80799
   H        2.73737         6.88651        -8.14278
   H       -2.36451         2.88096        -6.69638
   H       -1.16901         5.57060        -5.88971
   H       -2.92153         5.68502        -4.32944
   H       -7.26199         3.81150        -2.12505
   H       -7.41548         2.01969        -6.77729
*
