# ORCA input file
# SCF done       -215.119094383458          0.000561782839
! CAM-B3LYP def2-SVP def2/J RIJCOSX Grid4 TightSCF
%maxcore 5000
%tddft
    Mode sTDDFT
    Ethresh 5.0
    maxcore 5000
end

%pal
  nprocs 6
  end
* xyz 0 1
   C       -3.21097         0.73825         4.48442
   C       -3.34600         2.10778         4.64634
   C       -4.63223         2.64542         4.69205
   C       -4.79640         4.04273         4.86750
   N       -4.91774         5.17223         5.00702
   C       -5.77118         1.82437         4.57117
   C       -7.06278         2.40392         4.61789
   N       -8.11275         2.85935         4.64698
   C       -5.63086         0.44581         4.40694
   C       -4.35590        -0.07757         4.37149
   C       -3.94345        -1.49062         4.22813
   O       -4.60324        -2.43278         3.86732
   C       -2.46878        -1.47533         4.50304
   C       -2.01478        -0.09507         4.42467
   C       -0.72460         0.32410         4.27841
   C       -0.33090         1.67854         4.20071
   N        0.03289         2.76348         4.13385
   C        0.34966        -0.57909         4.12014
   N        1.22311        -1.30571         3.96136
   C       -1.78999        -2.55931         4.92168
   C       -2.41755        -3.81882         5.23512
   C       -3.48925        -4.01795         6.08578
   N       -4.21943        -3.07181         6.83006
   O       -4.96376        -3.49751         7.68952
   O       -4.06795        -1.87665         6.59822
   C       -3.70880        -5.43669         6.25968
   C       -2.83527        -6.10127         5.47528
   C       -2.00161        -5.14402         4.77563
   C       -1.02385        -5.42911         3.84566
   C        0.07368        -4.60022         3.45331
   C        1.04354        -5.39062         2.92076
   C        0.58150        -6.74828         2.86399
   N        1.40504        -7.75312         2.33982
   O        2.40711        -7.40630         1.74923
   O        1.10415        -8.93406         2.51981
   C       -0.74189        -6.78935         3.31992
   C       -1.73794        -7.76489         3.12324
   N       -1.47842        -9.09612         2.93449
   C       -2.64742        -9.73485         2.70010
   C       -3.21325       -10.96924         2.46955
   C       -4.60681       -10.74292         2.32941
   N       -4.87047        -9.39801         2.46651
   C       -3.70044        -8.75399         2.71688
   C       -3.14026        -7.52733         2.98731
   C       -5.57239       -11.73264         2.09120
   C       -6.91208       -11.48076         1.92499
   C       -7.92552       -12.43100         1.74444
   C       -9.28445       -12.22379         2.00993
   N       -9.93477       -11.01873         2.33520
   O       -9.27514        -9.98902         2.38114
   O      -11.12950       -11.07124         2.55240
   C       -9.96597       -13.47912         1.98450
   C       -9.06533       -14.46971         1.71667
   C       -7.79163       -13.88002         1.46162
   C       -6.72506       -14.51895         0.86720
   C       -5.72636       -13.93867         0.00673
   C       -4.96470       -14.93236        -0.50647
   C       -5.42151       -16.19161         0.03195
   N       -4.72123       -17.38781        -0.21590
   O       -3.72289       -17.31692        -0.90559
   O       -5.13959       -18.42899         0.27377
   C       -6.51483       -15.97106         0.85574
   C       -7.20648       -16.86202         1.73127
   C       -7.59265       -18.14178         1.52328
   C       -7.91968       -19.01806         2.68569
   O       -8.17125       -18.66364         3.81014
   C       -7.80169       -20.39441         2.15642
   C       -7.84160       -21.58678         2.84885
   C       -7.65749       -22.76973         2.13154
   C       -7.43095       -22.72999         0.74140
   C       -7.40154       -21.51935         0.04749
   C       -7.59363       -20.34984         0.76201
   C       -7.62128       -18.95818         0.32296
   C       -7.86037       -18.51344        -0.94623
   C       -8.07665       -17.15163        -1.24594
   N       -8.28754       -16.05321        -1.50226
   C       -7.98186       -19.36392        -2.06697
   N       -8.08726       -20.02125        -3.00011
   C       -7.22726       -23.94383         0.03782
   N       -7.06376       -24.92030        -0.53631
   C       -7.69131       -24.01491         2.80569
   N       -7.72334       -25.01111         3.36902
   H       -2.49413         2.76183         4.74979
   H       -6.49612        -0.19354         4.32167
   H       -0.73284        -2.49073         5.14198
   H       -4.44608        -5.83993         6.92631
   H       -2.71998        -7.16446         5.41768
   H        0.16934        -3.54763         3.62080
   H        2.01895        -5.08658         2.59029
   H       -0.52440        -9.45871         2.89527
   H       -2.73267       -11.92312         2.39079
   H       -5.78742        -8.98279         2.44689
   H       -3.61564        -6.56934         3.03494
   H       -5.20612       -12.74850         2.08074
   H       -7.26891       -10.46405         2.02685
   H      -11.02150       -13.58563         2.15189
   H       -9.29703       -15.50625         1.57009
   H       -5.68707       -12.90107        -0.26038
   H       -4.15348       -14.85323        -1.20440
   H       -7.40395       -16.47705         2.72873
   H       -8.00551       -21.60473         3.91571
   H       -7.21345       -21.51873        -1.01464
*
