# ORCA input file
# SCF done       -184.041196048805          0.000827633732
! CAM-B3LYP def2-SVP def2/J RIJCOSX Grid4 TightSCF
%maxcore 5000
%tddft
    Mode sTDDFT
    Ethresh 5.0
    maxcore 5000
end

%pal
  nprocs 6
  end
* xyz 0 1
   C        8.15383        -4.85696         3.12849
   C        8.56693        -4.32762         4.34284
   F        9.66283        -4.82595         4.92803
   C        7.86842        -3.29371         4.96521
   F        8.30874        -2.80616         6.13247
   C        6.72233        -2.76551         4.39081
   C        6.30306        -3.29962         3.18929
   C        7.00983        -4.33418         2.55074
   C        6.35250        -4.62945         1.27634
   C        6.95880        -5.22550         0.19652
   C        8.20077        -5.88457         0.25241
   N        9.19437        -6.46019         0.24587
   C        6.43692        -5.14178        -1.10923
   N        6.06619        -5.02996        -2.19074
   C        5.10546        -3.91327         1.26377
   C        5.11308        -2.94338         2.37810
   O        4.29841        -2.07504         2.60060
   C        3.98420        -4.03984         0.47944
   C        3.56334        -5.11850        -0.29927
   S        4.17442        -6.76227        -0.16436
   C        3.13289        -7.39542        -1.41178
   C        2.30288        -6.37193        -1.89388
   C        2.54039        -5.12594        -1.25087
   N        1.69586        -4.20527        -1.76607
   C        0.90701        -4.82678        -2.71520
   C       -0.08867        -4.14217        -3.42375
   N       -0.91031        -3.59629        -4.01016
   C        1.25279        -6.15828        -2.81615
   C        3.25843        -8.74347        -1.78209
   C        2.70558        -9.29026        -2.90379
   C        2.85444       -10.63222        -3.30649
   N        2.41843       -11.04773        -4.55145
   C        2.69679       -12.36736        -4.69105
   C        2.61407       -13.44404        -5.56085
   C        3.15782       -14.54238        -4.87347
   N        3.56026       -14.13819        -3.61587
   C        3.30397       -12.81132        -3.48197
   C        3.40991       -11.72861        -2.62272
   C        3.29749       -15.88410        -5.28980
   C        3.05655       -16.33410        -6.55240
   C        3.14705       -17.67885        -6.95501
   S        3.43065       -19.00893        -5.85899
   C        3.32894       -20.23739        -7.10803
   C        3.11328       -19.61461        -8.34967
   C        3.00611       -18.20038        -8.23930
   N        2.79208       -17.68472        -9.47656
   C        2.76022       -18.72964       -10.37437
   C        2.57270       -18.51197       -11.74657
   N        2.43364       -18.32227       -12.86937
   C        2.95558       -19.92806        -9.71704
   C        3.38946       -21.58274        -6.74287
   C        3.22526       -22.63659        -7.60634
   C        3.18526       -23.96355        -7.16956
   C        2.88385       -25.08181        -7.91006
   C        3.25181       -26.41608        -7.38577
   O        3.62494       -26.68438        -6.26585
   C        3.11009       -27.33944        -8.53619
   C        2.60490       -26.63078        -9.64006
   C        2.42308       -27.27617       -10.85195
   C        2.74710       -28.62329       -10.92722
   C        3.23354       -29.32230        -9.82326
   C        3.42220       -28.68192        -8.60846
   F        3.52626       -30.62400        -9.93913
   F        2.58968       -29.26238       -12.09246
   C        2.33334       -25.24839        -9.23024
   C        1.51958       -24.38265        -9.92030
   C        1.01119       -23.16537        -9.42404
   N        0.52872       -22.17829        -9.08801
   C        0.99470       -24.65069       -11.20186
   N        0.55875       -24.79547       -12.25399
   H        8.72445        -5.65502         2.68190
   H        6.18387        -1.96408         4.87084
   H        3.28911        -3.20744         0.54738
   H        1.64022        -3.23108        -1.51940
   H        0.78343        -6.86680        -3.46780
   H        3.88918        -9.35455        -1.15286
   H        2.14871        -8.64931        -3.57215
   H        2.00840       -10.44271        -5.24206
   H        2.20553       -13.46153        -6.55032
   H        3.99436       -14.73954        -2.93682
   H        3.81445       -11.70713        -1.63172
   H        3.62592       -16.59786        -4.54463
   H        2.77623       -15.62773        -7.32142
   H        2.67252       -16.71573        -9.71855
   H        2.97304       -20.88730       -10.19084
   H        3.51339       -21.79289        -5.68795
   H        3.11359       -22.43131        -8.65715
   H        3.47912       -24.16479        -6.14448
   H        2.05321       -26.78076       -11.73460
   H        3.80064       -29.21923        -7.75365
*
