# ORCA input file
# SCF done       -201.966439072078          0.000478867458
! CAM-B3LYP def2-SVP def2/J RIJCOSX Grid4 TightSCF
%maxcore 5000
%tddft
    Mode sTDDFT
    Ethresh 5.0
    maxcore 5000
end

%pal
  nprocs 6
  end
* xyz 0 1
   C       -5.52624        -6.83848        -0.32988
   C       -6.29255        -7.86309         0.20574
   F       -7.62357        -7.74132         0.21090
   C       -5.70955        -9.01501         0.73653
   F       -6.48822        -9.97640         1.24580
   C       -4.33329        -9.17343         0.73942
   C       -3.57055        -8.15582         0.20045
   C       -4.14841        -6.98942        -0.33079
   C       -3.07983        -6.10466        -0.79327
   C       -3.23370        -4.80501        -1.19043
   C       -4.48573        -4.16461        -1.31490
   N       -5.47623        -3.59930        -1.44010
   C       -2.17480        -3.90481        -1.44929
   N       -1.37970        -3.09496        -1.61635
   C       -1.82819        -6.82396        -0.64241
   C       -2.10027        -8.08173         0.06991
   O       -1.29850        -8.90740         0.46018
   C       -0.62729        -6.46256        -1.18994
   C        0.62754        -7.08421        -1.07268
   S        1.09410        -8.42082        -0.03290
   C        1.75286        -6.64581        -1.75696
   C        2.02494        -5.61890        -2.77891
   O        1.27508        -4.85883        -3.33607
   N        3.39287        -5.71061        -3.00472
   C        4.09092        -4.88135        -3.96467
   C        4.04780        -5.49308        -5.36036
   C        4.01594        -6.70217        -2.25921
   O        5.20066        -6.94450        -2.30805
   C        2.94371        -7.31444        -1.45538
   C        2.77760        -8.32139        -0.50604
   C        3.70679        -9.20464         0.08455
   C        5.03962        -9.19208        -0.18997
   C        6.00876       -10.02547         0.40911
   N        7.34176        -9.88553         0.07836
   C        8.06579       -10.77007         0.80617
   C        9.34965       -11.22594         1.07299
   C        9.21391       -12.23016         2.04430
   N        7.87748       -12.38669         2.35833
   C        7.15614       -11.50457         1.62070
   C        5.87291       -11.03961         1.37256
   C       10.26830       -12.95783         2.63890
   C       10.12941       -13.92444         3.58625
   C       11.20923       -14.60905         4.18978
   S       10.85993       -15.82968         5.39676
   C       12.58415       -14.50991         4.04207
   C       13.53221       -13.75353         3.21399
   O       13.34556       -12.91361         2.36465
   N       14.78894       -14.19527         3.61078
   C       16.02174       -13.73780         3.00451
   C       16.50774       -14.71854         1.94353
   C       14.75662       -15.14507         4.61333
   O       15.74164       -15.61970         5.13204
   C       13.32426       -15.37232         4.88216
   C       12.55148       -16.18501         5.69105
   C       12.89293       -17.21360         6.60145
   C       14.17458       -17.56640         6.87809
   C       14.53036       -18.63310         7.73232
   C       15.79007       -19.13871         7.86209
   C       16.16705       -19.96171         9.03799
   O       15.42392       -20.49617         9.82671
   C       17.64836       -19.92695         9.06497
   C       18.12556       -19.24212         7.93213
   C       19.48705       -19.05215         7.75796
   C       20.34272       -19.55707         8.72550
   C       19.86273       -20.24561         9.84080
   C       18.50271       -20.43776        10.02260
   F       20.72606       -20.72116        10.74609
   F       21.66013       -19.37565         8.58478
   C       16.98740       -18.87102         7.09049
   C       17.05317       -18.54748         5.76286
   C       15.94387       -18.51578         4.88803
   N       15.10494       -18.55214         4.10610
   C       18.25944       -18.31417         5.06838
   N       19.20729       -18.10123         4.45799
   H       -6.02355        -5.96965        -0.72888
   H       -3.87961       -10.06198         1.14855
   H       -0.60161        -5.58549        -1.82855
   H        5.12335        -4.78478        -3.62070
   H        3.60527        -3.90277        -3.96469
   H        4.51914        -6.47343        -5.35798
   H        4.57767        -4.85165        -6.05859
   H        3.01744        -5.59546        -5.69263
   H        3.30277        -9.90335         0.80300
   H        5.41077        -8.47947        -0.91462
   H        7.68824        -9.21554        -0.58773
   H       10.27908       -10.90287         0.65019
   H        7.51486       -13.04132         3.02845
   H        4.95271       -11.36742         1.81107
   H       11.26071       -12.69675         2.29954
   H        9.14985       -14.21954         3.93934
   H       16.76674       -13.64063         3.79823
   H       15.81818       -12.75954         2.56323
   H       16.68369       -15.69559         2.38794
   H       17.43710       -14.36019         1.51054
   H       15.76708       -14.81851         1.15340
   H       12.06949       -17.76134         7.04172
   H       14.97318       -16.99438         6.43042
   H       13.77417       -19.04840         8.38934
   H       19.90205       -18.52346         6.91527
   H       18.13025       -20.96781        10.88468
*
