# ORCA input file
# SCF done       -222.755574753290          0.000612927304
! CAM-B3LYP def2-SVP def2/J RIJCOSX Grid4 TightSCF
%maxcore 5000
%tddft
    Mode sTDDFT
    Ethresh 5.0
    maxcore 5000
end

%pal
  nprocs 6
  end
* xyz 0 1
   C        4.08539        -6.80190        -9.29982
   C        3.73307        -5.46498        -9.13382
   C        3.35202        -4.65537       -10.33178
   C        3.73532        -4.87943        -7.85839
   C        3.35649        -3.44379        -7.68399
   C        4.09330        -5.64324        -6.75207
   C        4.44144        -6.96696        -6.92596
   C        4.44165        -7.56211        -8.19899
   C        4.85078        -8.95792        -8.07068
   C        4.95909        -9.84914        -9.10694
   C        4.68099        -9.53225       -10.45335
   N        4.47489        -9.34399       -11.56715
   C        5.35364       -11.19892        -9.00167
   N        5.66628       -12.30469        -9.00854
   C        5.10757        -9.20412        -6.66320
   C        4.85264        -7.95921        -5.92244
   O        4.95933        -7.77863        -4.72144
   C        5.51641       -10.39070        -6.11568
   C        5.78120       -10.73253        -4.77953
   S        5.65915        -9.70200        -3.37726
   C        6.14685       -11.00483        -2.34086
   C        6.39245       -12.17222        -3.05379
   C        6.18864       -12.01664        -4.40923
   C        6.25032       -10.82920        -0.94000
   C        6.01416        -9.67994        -0.20829
   C        6.19009        -9.84682         1.16039
   C        6.56729       -11.13138         1.51419
   S        6.70734       -12.14348         0.10713
   C        6.81396       -11.64258         2.81311
   S        7.32342       -13.28313         3.06091
   C        7.35978       -13.06899         4.79084
   C        6.99147       -11.77256         5.12356
   C        6.69031       -10.97986         4.02591
   C        7.73037       -14.15521         5.61425
   C        7.74748       -14.11999         6.97455
   C        8.11288       -15.20284         7.81404
   C        8.04140       -15.05192         9.22495
   C        8.37599       -16.11030        10.15018
   N        8.27133       -15.88762        11.46860
   C        7.87013       -14.71837        11.90411
   C        7.54417       -13.66888        10.98729
   N        7.63697       -13.86228         9.69449
   C        7.11775       -12.40662        11.46803
   N        6.77673       -11.39638        11.88761
   C        7.76387       -14.50690        13.30081
   N        7.66895       -14.30869        14.42531
   C        8.81278       -17.38089         9.69647
   C        8.89914       -17.51971         8.29226
   C        8.55679       -16.46899         7.36594
   N        8.72213       -16.86396         6.10231
   S        9.24753       -18.38052         6.07749
   N        9.29550       -18.62551         7.66363
   C        9.14365       -18.47190        10.54368
   S        9.68845       -19.97662         9.85012
   C        9.83778       -20.69521        11.42688
   C        9.47933       -19.79801        12.42034
   C        9.09588       -18.56062        11.92908
   C       10.26821       -22.03326        11.58135
   C       10.66772       -22.91569        10.59435
   C       11.02751       -24.16674        11.08214
   C       10.90804       -24.27641        12.45463
   S       10.34215       -22.78430        13.15113
   C       11.17400       -25.40546        13.26805
   S       11.76673       -26.88945        12.59045
   C       11.76087       -27.66881        14.15595
   C       11.34508       -26.77779        15.13124
   C       11.01864       -25.51998        14.63745
   C       12.21854       -29.01032        14.23946
   C       11.98540       -29.92619        15.22085
   C       11.06322       -29.75902        16.27778
   C       10.86647       -30.51120        17.39739
   C       10.04209       -29.90595        18.48491
   O        9.31173       -28.94504        18.37839
   C       10.37161       -30.67138        19.69602
   C       11.24239       -31.72312        19.36111
   C       11.73267       -32.54179        20.36342
   C       11.34521       -32.32720        21.68339
   C       10.45622       -31.29000        22.00650
   C        9.97593       -30.45801        21.00091
   C       10.02930       -31.07214        23.42275
   C       11.88520       -33.21521        22.75836
   C       11.43735       -31.73875        17.91138
   C       11.88375       -32.82443        17.20423
   C       11.82037       -32.96975        15.80400
   N       11.75374       -33.17944        14.67689
   C       12.37127       -34.00422        17.80540
   N       12.79321       -34.98381        18.23044
   H        4.07540        -7.22635       -10.29069
   H        3.39434        -5.25852       -11.23439
   H        4.02461        -3.80618       -10.44875
   H        2.34201        -4.26184       -10.22260
   H        4.01751        -2.80006        -8.26341
   H        3.41709        -3.15361        -6.63871
   H        2.33962        -3.27079        -8.03506
   H        4.10235        -5.21375        -5.76136
   H        5.66584       -11.21929        -6.79752
   H        6.70539       -13.08807        -2.58346
   H        6.32302       -12.80011        -5.13441
   H        5.72160        -8.75602        -0.67459
   H        6.05019        -9.06077         1.87950
   H        6.94722       -11.42111         6.13818
   H        6.38502        -9.95193         4.09854
   H        8.01005       -15.07100         5.11317
   H        7.45657       -13.22096         7.49818
   H        9.50272       -20.05166        13.46575
   H        8.78577       -17.73705        12.54391
   H       10.69086       -22.63829         9.55567
   H       11.36418       -24.98333        10.46819
   H       11.32603       -27.01344        16.17930
   H       10.67703       -24.70227        15.24723
   H       12.83353       -29.32810        13.40640
   H       12.52500       -30.85752        15.15246
   H       10.42532       -28.88364        16.23293
   H       12.42295       -33.34016        20.14196
   H        9.29728       -29.64929        21.22761
   H        9.53635       -31.96094        23.81521
   H        9.34134       -30.23406        23.49255
   H       10.89203       -30.86821        24.05626
   H       12.55593       -33.96143        22.34178
   H       11.07367       -33.72712        23.27429
   H       12.42938       -32.63106        23.49992
*
