# ORCA input file
# SCF done       -195.305944907774          0.000749419172
! CAM-B3LYP def2-SVP def2/J RIJCOSX Grid4 TightSCF
%maxcore 5000
%tddft
    Mode sTDDFT
    Ethresh 5.0
    maxcore 5000
end

%pal
  nprocs 6
  end
* xyz 0 1
   C        0.08858         5.32182        -4.04320
   C        1.41513         5.23011        -4.04441
   C        2.09802         4.16494        -3.34475
   C        1.44001         3.34159        -2.52865
   C       -0.03552         3.53957        -2.22967
   C       -0.78324         4.31619        -3.33609
   N       -1.35830         3.49029        -4.37653
   C       -1.53379         2.26710        -4.15569
   C       -1.22681         1.64657        -2.85370
   N       -0.59367         2.23545        -1.94088
   F       -1.67946         0.41479        -2.62786
   F       -2.05785         1.49340        -5.09791
   C        2.07304         2.21043        -1.83196
   C        2.07354         0.92735        -2.36854
   C        1.48373         0.44623        -3.63325
   O        0.89033         1.06604        -4.48187
   N        1.72858        -0.92859        -3.67528
   C        2.43833        -1.37331        -2.55512
   O        2.79299        -2.50182        -2.33989
   C        2.65159        -0.16497        -1.71582
   C        3.28109        -0.03459        -0.49292
   C        3.28756         1.24415         0.05701
   C        2.69266         2.33278        -0.58244
   C        2.75635         3.59663         0.17427
   O        2.29137         4.65619        -0.12258
   S        3.66376         3.31159         1.69993
   C        3.91097         1.56287         1.35717
   O        4.49413         0.82268         2.08805
   C        1.27333        -1.68896        -4.74820
   C        1.39849        -3.01914        -4.86318
   C        0.92860        -3.77090        -5.98170
   N        1.07430        -5.14010        -6.00138
   C        0.56136        -5.61353        -7.16797
   C        0.33820        -6.76349        -7.91054
   C       -0.27798        -6.34119        -9.10115
   N       -0.43250        -4.96785        -9.07142
   C        0.07861        -4.49907        -7.90785
   C        0.30939        -3.34645        -7.16065
   C       -0.71067        -7.09121       -10.21746
   C       -0.56341        -8.43775       -10.32122
   C       -0.97852        -9.27591       -11.39650
   C       -1.18861        -8.87838       -12.74137
   C       -0.95365        -7.59078       -13.43669
   O       -0.54265        -6.53244       -13.02837
   N       -1.28480        -7.79754       -14.78645
   C       -1.69276        -9.10509       -15.03184
   O       -2.01837        -9.57230       -16.08968
   C       -1.60783        -9.78661       -13.71583
   C       -1.84731       -11.12291       -13.46248
   C       -1.61363       -11.53954       -12.15934
   C       -1.18768       -10.66853       -11.15962
   C       -1.00492       -11.33220        -9.85906
   O       -0.66378       -10.87426        -8.80688
   S       -1.38861       -13.09151       -10.01699
   C       -1.79494       -12.94797       -11.74899
   O       -2.15357       -13.85981       -12.43071
   C       -1.15417        -6.76360       -15.70921
   C       -1.50796        -6.82951       -16.99758
   C       -1.34017        -5.74868       -17.94167
   C       -0.48319        -4.72073       -17.79245
   C       -0.34790        -3.68275       -18.77994
   C       -1.17099        -3.59643       -19.82469
   C       -2.32175        -4.55000       -20.00047
   C       -2.13370        -5.88065       -19.23440
   N       -3.37920        -6.54803       -18.93155
   C       -4.42756        -5.86415       -18.82702
   C       -4.46129        -4.41199       -19.08405
   N       -3.50679        -3.80203       -19.62592
   F       -5.54805        -3.73829       -18.71651
   F       -5.56895        -6.46534       -18.50589
   H       -0.43605         6.06335        -4.62260
   H        2.01986         5.93638        -4.59149
   H        3.15622         4.03639        -3.51605
   H       -0.08636         4.10547        -1.28909
   H       -1.63476         4.84692        -2.88734
   H        3.73609        -0.86861         0.01732
   H        0.78583        -1.08150        -5.49728
   H        1.88336        -3.58091        -4.07846
   H        1.48646        -5.68038        -5.25984
   H        0.56799        -7.77580        -7.64785
   H       -0.82047        -4.42647        -9.82531
   H        0.07060        -2.33498        -7.41728
   H       -1.18931        -6.52835       -11.00360
   H       -0.13977        -8.95454        -9.47487
   H       -2.17532       -11.80567       -14.22890
   H       -0.73839        -5.87420       -15.25474
   H       -1.97161        -7.72412       -17.38404
   H        0.13900        -4.65800       -16.91374
   H        0.44130        -2.95933       -18.64177
   H       -1.11998        -2.78688       -20.53361
   H       -2.44568        -4.76567       -21.07113
   H       -1.57592        -6.58173       -19.87170
*
