# ORCA input file
# SCF done       -220.544709555085          0.000260663911
! CAM-B3LYP def2-SVP def2/J RIJCOSX Grid4 TightSCF
%maxcore 5000
%tddft
    Mode sTDDFT
    Ethresh 5.0
    maxcore 5000
end

%pal
  nprocs 6
  end
* xyz 0 1
   C        6.15560        -9.53022        12.20867
   C        7.31459       -10.05190        12.76709
   C        8.52471        -9.99111        12.09308
   C        8.61510        -9.40042        10.83994
   C        7.46488        -8.88466        10.27160
   C        6.22856        -8.95079        10.95338
   C        5.20068        -8.34056        10.11663
   C        3.91444        -8.05167        10.50389
   C        3.37942        -8.36457        11.76972
   N        2.86941        -8.59440        12.77284
   C        2.96956        -7.34495         9.73818
   N        2.14709        -6.75248         9.19341
   C        5.81513        -8.07459         8.82942
   C        7.24835        -8.19064         9.00984
   C        8.19952        -7.50432         8.29640
   C        7.86572        -6.54368         7.31967
   N        7.60958        -5.71152         6.57046
   C        9.58197        -7.59334         8.54309
   N       10.71926        -7.64970         8.69129
   C        5.09777        -7.87983         7.67077
   C        5.47441        -8.03075         6.32346
   C        4.61088        -7.57552         5.33635
   C        4.84368        -7.61508         3.97524
   C        6.01841        -8.31479         3.43620
   C        6.96450        -8.90117         4.19996
   S        6.95834        -8.89712         5.91377
   C        5.87633        -8.26050         2.02313
   C        4.69781        -7.58285         1.69466
   C        4.50395        -7.50067         0.29636
   C        5.51111        -8.10613        -0.38228
   S        6.73442        -8.79491         0.63757
   C        4.04884        -7.14699         2.89573
   C        2.82858        -6.42859         2.91622
   C        2.35800        -5.70328         3.96363
   C        1.06286        -5.11041         4.10191
   C        0.70788        -4.63261         5.35042
   C       -0.58927        -4.15399         5.58718
   C       -1.19298        -3.70399         6.75615
   C       -0.55053        -3.65546         8.09818
   C       -0.65723        -2.27574         8.77217
   N        0.46734        -2.11180         9.67145
   C       -1.10620        -4.77274         9.00510
   N       -0.26859        -4.91765        10.18513
   C       -2.55152        -3.35767         6.41070
   C       -3.57705        -2.89304         7.14928
   C       -4.89342        -2.56144         6.53848
   C       -5.02961        -2.94341         5.09506
   C       -3.99901        -3.41433         4.36975
   C       -2.73710        -3.62643         4.97299
   C       -1.54245        -4.11270         4.48710
   C       -1.13957        -4.55967         3.20527
   C        0.11073        -5.05257         3.02825
   C       -5.08534        -1.06528         6.56659
   C       -6.24880        -0.47470         6.85557
   C       -6.50564         0.93975         6.80389
   C       -7.77736         1.42899         6.97008
   C       -8.12015         2.78072         6.93980
   C       -7.09092         3.81929         6.87151
   C       -5.77713         3.56199         6.67488
   S       -5.13179         1.98448         6.50850
   C       -7.77793         5.05285         7.05436
   C       -9.14019         4.81066         7.21987
   C       -9.87569         6.00084         7.40078
   C       -9.06741         7.09403         7.37262
   S       -7.39591         6.72728         7.12136
   C       -9.38197         3.39209         7.10945
   C      -10.65302         2.79633         7.15024
   C      -11.00106         1.59444         6.58847
   C      -12.28944         1.03668         6.63422
   C      -13.25687         1.26544         7.59073
   C      -14.68600         1.12488         7.38248
   C      -15.32347         0.51365         6.33137
   C      -14.69032        -0.14380         5.25789
   N      -14.25045        -0.70010         4.35365
   C      -16.72403         0.42436         6.19939
   N      -17.85386         0.31332         6.02543
   C      -15.34422         1.78619         8.50486
   C      -14.36011         2.19397         9.43295
   C      -14.71332         2.87270        10.58657
   C      -16.05546         3.14234        10.81110
   C      -17.02443         2.73458         9.90660
   C      -16.68154         2.05340         8.74729
   C      -13.06213         1.75237         8.94397
   C      -11.94669         1.56214         9.72477
   C      -11.84241         1.97775        11.06529
   N      -11.69049         2.31363        12.15324
   C      -10.80851         0.85112         9.30445
   N       -9.88190         0.22468         9.03933
   H        5.22366        -9.58652        12.74721
   H        7.26848       -10.51336        13.74177
   H        9.41082       -10.40844        12.54661
   H        9.55986        -9.35936        10.32191
   H        4.04967        -7.64015         7.79994
   H        3.68708        -7.14618         5.69447
   H        7.81198        -9.42001         3.78024
   H        3.66959        -7.02185        -0.18308
   H        5.62627        -8.19806        -1.44458
   H        2.25256        -6.48252         2.00147
   H        3.00485        -5.55784         4.81674
   H        1.42258        -4.66356         6.16018
   H        0.51952        -3.84635         7.97468
   H       -1.63378        -2.18430         9.27656
   H       -0.59956        -1.49138         8.00843
   H        0.46954        -2.88966        10.32719
   H        0.38762        -1.24619        10.19370
   H       -1.17639        -5.69896         8.40973
   H       -2.11734        -4.51182         9.33265
   H        0.63653        -5.29320         9.91022
   H       -0.68360        -5.58297        10.82956
   H       -3.48058        -2.69463         8.20651
   H       -5.69725        -3.02541         7.12388
   H       -6.00001        -2.77396         4.65482
   H       -4.12735        -3.65871         3.32510
   H       -1.83812        -4.51239         2.38256
   H        0.41499        -5.40039         2.05330
   H       -4.22721        -0.48696         6.25310
   H       -7.10170        -1.07507         7.14483
   H       -8.55472         0.71116         7.19050
   H       -5.03732         4.34329         6.60013
   H      -10.93938         6.05468         7.54639
   H       -9.35086         8.12218         7.48550
   H      -11.44090         3.39811         7.59054
   H      -10.28903         1.10375         5.94033
   H      -12.56049         0.41380         5.79249
   H      -13.96737         3.19853        11.29353
   H      -16.34619         3.67752        11.70221
   H      -18.06344         2.95160        10.10260
   H      -17.44910         1.74770         8.05571
*
