# ORCA input file
# SCF done       -173.851641799587          0.000815716203
! CAM-B3LYP def2-SVP def2/J RIJCOSX Grid4 TightSCF
%maxcore 5000
%tddft
    Mode sTDDFT
    Ethresh 5.0
    maxcore 5000
end

%pal
  nprocs 6
  end
* xyz 0 1
   C      -11.86409        -9.98459        -7.75794
   C      -11.62116       -11.02063        -8.64647
   C      -10.47237       -11.79282        -8.54516
   C       -9.53597       -11.55002        -7.55247
   C       -9.76987       -10.52146        -6.65071
   C      -10.93762        -9.73228        -6.75779
   C      -10.91335        -8.71824        -5.71730
   C      -11.82049        -7.70962        -5.54706
   C      -12.99409        -7.56148        -6.31569
   N      -13.97544        -7.39481        -6.88777
   C      -11.70766        -6.66436        -4.60464
   N      -11.66784        -5.76406        -3.89327
   C       -9.73522        -8.98036        -4.89713
   C       -8.96441       -10.02495        -5.54416
   C       -7.70514       -10.46108        -5.22012
   C       -6.77186        -9.80216        -4.39989
   N       -5.88231        -9.32359        -3.85162
   C       -7.11700       -11.62856        -5.74815
   N       -6.58775       -12.59424        -6.07621
   C       -9.60869        -8.51527        -3.61852
   C       -8.66057        -8.85450        -2.68227
   C       -7.93422        -9.05112        -1.72191
   C       -7.00804        -9.29394        -0.73201
   S       -5.35033        -9.67110        -1.12351
   C       -4.97014        -9.79683         0.56763
   C       -6.07247        -9.55662         1.36770
   C       -7.21760        -9.26648         0.63589
   C       -3.69210       -10.12450         0.99389
   C       -2.57366       -10.42424         1.35341
   C       -1.34484       -10.86771         1.84453
   C       -0.40910       -11.44286         1.07979
   C        0.75907       -12.12911         1.65693
   S        2.36835       -12.02206         0.70638
   C        1.91236       -13.70036         0.67389
   C        0.76404       -13.61619         1.37562
   C       -0.31208       -14.55052         1.65341
   O       -0.35771       -15.70673         1.31051
   O       -1.29321       -13.92248         2.34246
   C       -2.53420       -14.60961         2.49442
   C       -3.49116       -14.12979         1.51790
   C       -4.19102       -13.67897         0.64456
   C       -5.06010       -13.27466        -0.36875
   S       -6.76339       -13.10836        -0.07997
   C       -7.03749       -12.75645        -1.77426
   C       -5.84902       -12.74431        -2.47982
   C       -4.73984       -13.03356        -1.68803
   C       -8.32183       -12.63321        -2.26220
   C       -9.47643       -12.63354        -2.65317
   C      -10.77130       -12.73189        -3.12438
   C      -11.06381       -12.72978        -4.45659
   C      -12.29500       -13.02104        -5.08621
   C      -13.57133       -13.15501        -4.60001
   C      -14.60242       -13.92808        -5.29095
   C      -14.63467       -14.29025        -6.61054
   C      -13.68388       -13.94287        -7.59254
   N      -12.96810       -13.70164        -8.45790
   C      -15.67693       -15.04075        -7.19808
   N      -16.48493       -15.64596        -7.74359
   C      -15.62399       -14.24831        -4.30180
   C      -15.33198       -13.55452        -3.10643
   C      -16.14053       -13.69258        -1.99065
   C      -17.24436       -14.52785        -2.07442
   C      -17.53773       -15.20545        -3.24924
   C      -16.73479       -15.07402        -4.37273
   C      -14.14485       -12.74428        -3.32747
   C      -13.80167       -11.63382        -2.60095
   C      -14.43661       -11.23774        -1.40582
   N      -14.89708       -10.88292        -0.41650
   C      -12.82860       -10.71305        -3.02331
   N      -12.06374        -9.92397        -3.35488
   H      -12.75835        -9.39068        -7.85227
   H      -12.33557       -11.23327        -9.42561
   H      -10.31000       -12.59631        -9.24582
   H       -8.64681       -12.15695        -7.49109
   H      -10.38035        -7.85409        -3.24369
   H       -6.02824        -9.59083         2.44145
   H       -8.17916        -9.05096         1.06644
   H       -1.20586       -10.78430         2.91554
   H       -0.54748       -11.53711         0.01212
   H        0.93094       -11.86995         2.70120
   H        2.44282       -14.50811         0.20903
   H       -2.88867       -14.40950         3.51041
   H       -2.36907       -15.68748         2.35463
   H       -5.80109       -12.55665        -3.53692
   H       -3.73176       -13.08388        -2.05691
   H      -11.53146       -12.90911        -2.37408
   H      -10.22717       -12.61908        -5.13378
   H      -12.17248       -13.29155        -6.12796
   H      -15.91780       -13.17637        -1.07085
   H      -17.88129       -14.65146        -1.21214
   H      -18.40290       -15.84901        -3.29240
   H      -16.97742       -15.61284        -5.27348
*
