# ORCA input file
# SCF done       -271.127089567808          0.000859306845
! CAM-B3LYP def2-SVP def2/J RIJCOSX Grid4 TightSCF
%maxcore 5000
%tddft
    Mode sTDDFT
    Ethresh 5.0
    maxcore 5000
end

%pal
  nprocs 6
  end
* xyz 0 1
   C        3.68438        -0.84235        -2.10657
   C        3.68719        -1.66493        -3.35322
   O        4.14028        -1.33030        -4.42466
   C        3.08577        -2.95321        -2.96504
   C        2.63040        -2.87517        -1.64829
   C        2.83253        -1.51820        -1.14938
   C        2.14472        -0.94944        -0.10917
   C        2.13038         0.43855         0.14633
   N        2.05278         1.56173         0.36702
   C        1.35176        -1.66435         0.80827
   N        0.74303        -2.19939         1.62268
   C        2.05233        -3.98926        -1.02614
   C        1.93393        -5.15362        -1.73897
   C        2.36566        -5.26014        -3.07931
   C        2.96233        -4.13536        -3.72050
   C        3.39473        -4.24738        -5.05766
   C        3.23828        -5.42588        -5.73371
   C        2.64979        -6.53648        -5.10752
   C        2.22401        -6.45719        -3.80999
   C        4.53904         0.21131        -2.02338
   C        4.99824         0.90003        -0.87300
   C        4.87608         0.54258         0.44418
   C        5.46019         1.44623         1.35069
   C        5.41831         1.40481         2.76363
   C        4.61632         0.44692         3.49480
   C        3.88903         0.69361         4.62770
   C        3.13573        -0.41794         5.05723
   C        3.27753        -1.53355         4.28335
   S        4.37670        -1.20724         2.98935
   C        2.59123        -2.84218         4.39232
  Cl        2.11347        -0.35699         6.43840
   C        6.11042         2.41837         3.42239
   C        6.78987         3.46317         2.74548
   C        6.78998         3.52687         1.33568
   C        6.09738         2.52105         0.67446
   S        5.92514         2.37704        -1.05027
   C        7.50610         4.57418         0.63720
   C        8.73925         5.08327         0.93160
   C        9.13267         6.10353         0.04015
   C        8.21947         6.38616        -0.93381
   S        6.83191         5.36549        -0.76032
   C        8.30348         7.38829        -2.02579
  Cl       10.64515         6.91538         0.18870
   C        7.38280         4.37530         3.64544
   C        7.23396         4.03141         4.96048
   S        6.30478         2.55906         5.14502
   C        7.75133         4.75166         6.09187
   C        7.75557         4.24910         7.38425
   F        7.24261         3.03340         7.63150
   C        8.29097         4.93493         8.48555
   F        8.23993         4.30385         9.66879
   C        8.84256         6.20288         8.40298
   C        8.84527         6.76443         7.09619
   C        8.32365         6.04867         5.96035
   N        8.45003         6.75404         4.83789
   S        9.15177         8.15928         5.16656
   N        9.33340         7.95333         6.74729
   C        9.40076         6.91013         9.52343
   C        9.67771         8.24703         9.57255
   C       10.28324         8.66074        10.77944
   C       10.65251         9.97155        11.14859
   C       10.50532        11.07356        10.22079
   C       10.75982        11.07913         8.87818
   C       10.48519        12.32682         8.27975
   C       10.02319        13.27868         9.14199
   S        9.92754        12.63132        10.74464
   C        9.63203        14.68233         8.85806
  Cl       10.71562        12.60223         6.59464
   C       11.16783        10.12949        12.42898
   C       11.36014         9.04490        13.32452
   C       10.97255         7.73523        12.96366
   C       10.45002         7.58059        11.68289
   S        9.85734         6.09374        11.00251
   C       11.05404         6.62419        13.88559
   C       11.31804         5.30937        13.61589
   C       11.24341         4.49253        14.76239
   C       10.90882         5.15275        15.91141
   S       10.68878         6.83210        15.58083
   C       10.73793         4.60160        17.27913
  Cl       11.54874         2.80046        14.72288
   C       11.97310         9.46238        14.52303
   C       12.20384        10.81175        14.59262
   S       11.71521        11.62649        13.12196
   C       12.82453        11.55578        15.62985
   C       13.02070        11.20130        16.92504
   C       14.05427        11.92106        17.72674
   O       14.55728        12.98591        17.44648
   C       14.34610        11.02981        18.86341
   C       13.47015         9.94338        18.84050
   C       12.52479        10.11130        17.74108
   C       11.29005         9.52514        17.65481
   C       10.29901         9.94739        16.74270
   N        9.44922        10.29985        16.05746
   C       10.84333         8.48655        18.49454
   N       10.44774         7.60942        19.12190
   C       13.56570         8.92959        19.80260
   C       14.53109         9.02937        20.77019
   C       15.42259        10.12305        20.83128
   C       15.33843        11.15802        19.85466
   C       16.23228        12.24634        19.91732
   C       17.17086        12.30794        20.91016
   C       17.25764        11.29187        21.87547
   C       16.40433        10.22337        21.83783
   H        1.71849        -3.93862        -0.00266
   H        1.49624        -6.02439        -1.27248
   H        3.84607        -3.38808        -5.52787
   H        3.56764        -5.51067        -6.75845
   H        2.53626        -7.45716        -5.66047
   H        1.77098        -7.31032        -3.32595
   H        4.98673         0.51096        -2.96586
   H        4.42581        -0.38116         0.74757
   H        3.84223         1.64695         5.11937
   H        2.16607        -2.95459         5.38650
   H        3.28095        -3.66087         4.19621
   H        1.78287        -2.89450         3.65866
   H        9.36946         4.71995         1.72166
   H        9.24264         7.93130        -1.95483
   H        7.47832         8.09652        -1.96159
   H        8.24968         6.89939        -2.99795
   H        7.88791         5.27250         3.34541
   H        9.42288         8.91111         8.77051
   H       11.16524        10.24576         8.33536
   H        9.78419        14.90080         7.80402
   H       10.22746        15.37319         9.45369
   H        8.58362        14.84576         9.10559
   H       11.59215         4.93299        12.64816
   H        9.90450         3.89915        17.29998
   H       10.54284         5.40038        17.99079
   H       11.63493         4.06136        17.58171
   H       12.29685         8.78073        15.28725
   H       13.26348        12.50494        15.33884
   H       12.90213         8.08057        19.77692
   H       14.62261         8.25359        21.51667
   H       16.15645        13.02040        19.17013
   H       17.85469        13.14210        20.95839
   H       18.00670        11.36094        22.65033
   H       16.46902         9.44066        22.57980
*
