# ORCA input file
# SCF done       -124.729741072733          0.000689221919
! CAM-B3LYP def2-SVP def2/J RIJCOSX Grid4 TightSCF
%maxcore 5000
%tddft
    Mode sTDDFT
    Ethresh 5.0
    maxcore 5000
end

%pal
  nprocs 6
  end
* xyz 0 1
   C        0.87953        -1.16866        -0.44784
   N        1.92444        -1.45997        -1.20453
   C        1.75511        -2.43797        -2.08459
   C        0.55843        -3.11841        -2.21146
   C       -0.48592        -2.73157        -1.35969
   N       -0.30194        -1.74286        -0.47390
   C       -1.77463        -3.37855        -1.40763
   C       -2.78744        -3.04363        -0.58352
   C       -4.07266        -3.64766        -0.58151
   C       -5.11752        -3.34899         0.27089
   C       -6.24651        -4.12614         0.01714
   C       -6.07867        -5.03188        -1.04141
   S       -4.49575        -4.91575        -1.72467
   C       -7.19907        -5.80985        -1.30326
   C       -8.24471        -5.51204        -0.44316
   S       -7.83038        -4.25126         0.70236
   C       -9.53138        -6.11955        -0.43360
   C      -10.52374        -5.75053         0.50141
   C      -11.83392        -6.34376         0.54444
   N      -12.70609        -5.91705         1.48304
   C      -12.35616        -4.99460         2.31657
   C      -11.06546        -4.40847         2.27395
   N      -10.20271        -4.78987         1.39160
   F      -10.70759        -3.45817         3.13270
   F      -13.25408        -4.61035         3.22315
   C      -12.22242        -7.35342        -0.36708
   C      -11.23048        -7.72095        -1.30496
   C       -9.91496        -7.12810        -1.34698
   N       -9.17549        -7.65411        -2.32583
   S      -10.03192        -8.76481        -3.10455
   N      -11.38326        -8.64615        -2.25223
   C      -13.50034        -7.98482        -0.38346
   C      -14.58345        -7.76176         0.44969
   C      -15.66673        -8.57359         0.12753
   C      -15.43226        -9.43175        -0.95824
   S      -13.83641        -9.22421        -1.58595
   C      -16.52372       -10.24101        -1.27540
   C      -17.58526       -10.00081        -0.43432
   S      -17.26331        -8.77734         0.76205
   C      -18.87914       -10.63399        -0.44446
   N      -19.74348       -10.23659         0.49201
   C      -20.92958       -10.81360         0.49078
   C      -21.27820       -11.78622        -0.43206
   C      -20.30804       -12.13637        -1.37938
   N      -19.11183       -11.55379        -1.37445
   C      -20.57932       -13.14518        -2.39662
   C      -19.69770       -13.49307        -3.32574
   H        1.01292        -0.37059         0.27247
   H        2.61357        -2.67336        -2.70128
   H        0.42834        -3.91250        -2.92970
   H       -1.89973        -4.16278        -2.14262
   H       -2.62033        -2.25738         0.14072
   H       -5.05153        -2.60101         1.03945
   H       -7.27354        -6.55707        -2.07012
   H      -14.56872        -7.04235         1.24433
   H      -16.55972       -10.96588        -2.06604
   H      -21.61744       -10.47997         1.25759
   H      -22.25007       -12.25231        -0.42456
   H      -21.56014       -13.59983        -2.35165
   H      -18.72839       -13.02594        -3.35606
   H      -19.91679       -14.23740        -4.07155
*
