# ORCA input file
# SCF done       -199.479392598714          0.000734960573
! CAM-B3LYP def2-SVP def2/J RIJCOSX Grid4 TightSCF
%maxcore 5000
%tddft
    Mode sTDDFT
    Ethresh 5.0
    maxcore 5000
end

%pal
  nprocs 6
  end
* xyz 0 1
   C       -9.16549         1.67682        -3.42723
   C       -9.29008         1.79188        -4.78344
   F       -9.54749         2.98385        -5.33711
   C       -9.15039         0.66267        -5.61512
   F       -9.27718         0.80516        -6.94103
   C       -8.88876        -0.56702        -5.07857
   C       -8.75604        -0.71803        -3.68474
   C       -8.89584         0.42308        -2.84279
   C       -8.76732         0.29633        -1.44033
   C       -8.50941        -0.93404        -0.89601
   C       -8.37492        -2.06785        -1.74547
   C       -8.49032        -1.97743        -3.10241
   C       -8.11674        -3.26001        -0.91963
   O       -7.93789        -4.39459        -1.32494
   C       -8.12271        -2.80154         0.47455
   C       -8.33657        -1.36643         0.48966
   C       -8.36390        -0.53810         1.58163
   C       -8.18946        -0.93379         2.92442
   N       -8.05620        -1.17195         4.04023
   C       -8.56589         0.85681         1.51006
   N       -8.72296         1.99379         1.52544
   C       -7.98250        -3.60530         1.57650
   C       -7.79386        -4.99244         1.67562
   C       -7.72359        -5.62669         2.91889
   C       -7.55224        -6.99160         2.80465
   C       -7.47575        -7.43004         1.46738
   S       -7.63181        -6.13439         0.34516
   C       -7.31199        -8.81580         1.39359
   C       -7.27319        -9.42576         2.65553
   S       -7.42388        -8.28854         3.96446
   C       -7.12887       -10.81095         2.60840
   C       -7.04673       -11.27722         1.31338
   S       -7.14979        -9.98007         0.13417
   C       -6.90140       -12.63571         0.88235
   C       -6.69010       -12.97107        -0.44496
   C       -6.55088       -14.29015        -0.86478
   F       -6.33507       -14.47470        -2.18201
   C       -6.62588       -15.40269        -0.03348
   C       -6.84746       -15.08760         1.33751
   C       -6.97261       -13.72573         1.79329
   N       -7.16405       -13.66221         3.10905
   S       -7.18349       -15.14759         3.71531
   N       -6.95149       -15.95172         2.34531
   C       -6.49124       -16.75555        -0.48956
   C       -6.69644       -17.89629         0.26046
   C       -6.46922       -19.05410        -0.47824
   C       -6.07819       -18.81058        -1.80328
   S       -6.01436       -17.12380        -2.13877
   C       -5.84510       -19.99404        -2.50665
   C       -6.06265       -21.13515        -1.71642
   S       -6.56289       -20.74811        -0.09433
   C       -5.80766       -22.32885        -2.37861
   C       -5.42242       -22.12945        -3.69443
   S       -5.33574       -20.41565        -4.09333
   C       -5.01528       -23.15320        -4.57799
   C       -4.78537       -23.11572        -5.91932
   C       -3.89615       -24.13940        -6.53297
   O       -3.53535       -25.18048        -6.03545
   C       -3.50346       -23.57066        -7.83950
   C       -2.59446       -24.04225        -8.74182
   C       -2.34890       -23.30154        -9.91989
   C       -3.05056       -22.08024       -10.13857
   C       -2.78957       -21.34095       -11.30969
   C       -1.87826       -21.79404       -12.22172
   C       -1.18801       -23.00374       -12.00642
   C       -1.41783       -23.74301       -10.88024
   F       -0.29988       -23.42345       -12.91786
   F       -1.63082       -21.08908       -13.33368
   C       -3.99645       -21.62300        -9.19222
   C       -4.22246       -22.36118        -8.06224
   C       -5.14479       -22.16367        -6.94722
   C       -6.30195       -21.43209        -6.99470
   C       -7.31060       -21.53416        -6.01384
   N       -8.17144       -21.64732        -5.26322
   C       -6.65262       -20.59731        -8.07429
   N       -6.96713       -19.89639        -8.92679
   H       -9.27485         2.55146        -2.80518
   H       -8.78506        -1.42171        -5.72853
   H       -8.88033         1.17959        -0.83317
   H       -8.38320        -2.85480        -3.72191
   H       -8.03715        -3.12044         2.54367
   H       -7.80141        -5.09324         3.84893
   H       -7.08640       -11.45804         3.46358
   H       -6.62279       -12.19800        -1.19540
   H       -6.99405       -17.87073         1.29090
   H       -5.91478       -23.30453        -1.94158
   H       -4.75298       -24.09178        -4.09770
   H       -2.06768       -24.96645        -8.55915
   H       -3.31208       -20.41501       -11.49235
   H       -0.88122       -24.66660       -10.72946
   H       -4.51103       -20.69334        -9.37713
*
