# ORCA input file
# SCF done       -278.469984175975          0.000823070594
! CAM-B3LYP def2-SVP def2/J RIJCOSX Grid4 TightSCF
%maxcore 5000
%tddft
    Mode sTDDFT
    Ethresh 5.0
    maxcore 5000
end

%pal
  nprocs 6
  end
* xyz 0 1
   C       -8.18834         3.12908         0.43469
   C       -8.23910         3.70278        -0.80457
   F       -8.32422         5.03369        -0.92778
   C       -8.20259         2.90584        -1.96677
   F       -8.25326         3.49583        -3.16865
   C       -8.11620         1.54530        -1.87305
   C       -8.06243         0.92440        -0.60997
   C       -8.09918         1.72833         0.56619
   C       -8.04785         1.12768         1.84479
   C       -7.96217        -0.23686         1.94580
   C       -7.92096        -1.02766         0.76689
   C       -7.97072        -0.47841        -0.48193
   C       -7.81662        -2.45402         1.12679
   O       -7.78950        -3.36945         0.33067
   C       -7.75023        -2.49391         2.60815
   C       -7.90141        -1.12916         3.10034
   C       -8.01728        -0.72069         4.40274
   C       -8.03675        -1.54399         5.55009
   N       -8.07609        -2.12039         6.54282
   C       -8.16739         0.62795         4.79407
   N       -8.29097         1.70026         5.18438
   C       -7.52133        -3.56366         3.42958
   C       -7.35728        -4.94061         3.15835
   C       -7.43948        -5.66960         1.99688
   C       -7.21606        -7.04761         2.17042
   C       -7.18676        -8.04362         1.16742
   C       -7.50800        -7.77363        -0.21562
   C       -6.94979        -8.33448        -1.33285
   C       -7.54954        -7.88273        -2.52483
   C       -8.57204        -6.99394        -2.34191
   S       -8.80102        -6.69082        -0.65820
   C       -9.42164        -6.33560        -3.36524
  Cl       -7.03015        -8.41557        -4.07474
   C       -6.84390        -9.32345         1.58998
   C       -6.56220        -9.65835         2.93788
   C       -6.60552        -8.66840         3.94291
   C       -6.93577        -7.38237         3.52439
   S       -6.99861        -5.97646         4.54028
   C       -6.32005        -8.95580         5.33276
   C       -6.93353        -8.43520         6.43768
   C       -6.38278        -8.91578         7.64432
   C       -5.34334        -9.78682         7.48459
   S       -5.03092       -10.03266         5.80272
   C       -4.54355       -10.48693         8.51937
  Cl       -6.98517        -8.43448         9.18281
   C       -6.31400       -11.04222         3.08977
   C       -6.37937       -11.74986         1.92188
   S       -6.76796       -10.72101         0.56052
   C       -6.16242       -13.16082         1.74542
   C       -5.93595       -14.05305         2.78561
   C       -5.86699       -13.82187         4.15911
   N       -5.79582       -13.68932         5.29840
   S       -5.70887       -15.68642         2.23409
   C       -5.90906       -15.20061         0.58410
   C       -6.14297       -13.83495         0.48615
   C       -6.31002       -13.20232        -0.75816
   N       -6.42942       -12.71025        -1.78863
   C       -5.81986       -16.17448        -0.45286
   C       -5.52196       -17.50107        -0.28505
   C       -5.49683       -18.23585        -1.49145
   C       -5.23126       -19.61097        -1.67546
   C       -5.02028       -20.51902        -0.56847
   C       -4.17114       -21.58833        -0.50755
   C       -4.26954       -22.29736         0.70822
   C       -5.19240       -21.79772         1.58179
   S       -5.95880       -20.40615         0.89821
   C       -5.56510       -22.29767         2.92837
  Cl       -3.29818       -23.67703         1.04720
   C       -5.19940       -20.06157        -2.99301
   C       -5.46869       -19.22235        -4.10539
   C       -5.79499       -17.86357        -3.91628
   C       -5.76501       -17.40213        -2.60707
   S       -6.08521       -15.76188        -2.13092
   C       -6.16718       -17.02346        -5.03270
   C       -6.96047       -17.35605        -6.09553
   C       -7.11088       -16.29744        -7.01531
   C       -6.44615       -15.15458        -6.66975
   S       -5.61353       -15.37759        -5.16973
   C       -6.38441       -13.86046        -7.39225
  Cl       -8.04904       -16.46270        -8.45115
   C       -5.36501       -19.91305        -5.32927
   C       -5.07022       -21.24489        -5.19177
   S       -4.86622       -21.68817        -3.50953
   C       -4.83272       -22.20324        -6.21053
   C       -5.22286       -22.16282        -7.51169
   C       -4.50603       -23.01121        -8.50977
   O       -3.76252       -23.93226        -8.27141
   C       -4.85558       -22.43802        -9.82529
   C       -4.35959       -22.74963       -11.05855
   C       -4.81704       -22.02894       -12.18468
   C       -5.77697       -20.98970       -12.00921
   C       -6.21883       -20.26634       -13.13519
   C       -5.73412       -20.56332       -14.37790
   C       -4.78681       -21.59290       -14.55107
   C       -4.33716       -22.31105       -13.47862
   F       -4.32801       -21.86082       -15.78034
   F       -6.15510       -19.87591       -15.44678
   C       -6.27909       -20.69498       -10.72134
   C       -5.83157       -21.41653        -9.64734
   C       -6.18397       -21.35165        -8.23173
   C       -7.35476       -20.83682        -7.74322
   C       -7.77582       -20.96606        -6.40410
   N       -8.17831       -21.05830        -5.33316
   C       -8.32084       -20.19258        -8.54571
   N       -9.13653       -19.65894        -9.15074
   H       -8.21822         3.75405         1.31355
   H       -8.08885         0.94879        -2.77148
   H       -8.07443         1.76729         2.71154
   H       -7.93872        -1.10796        -1.35818
   H       -7.43483        -3.33799         4.48604
   H       -7.63516        -5.20675         1.04854
   H       -6.11682        -9.01257        -1.32396
   H       -8.95855        -6.43256        -4.34438
   H       -9.55314        -5.28133        -3.12965
   H      -10.40838        -6.79901        -3.40073
   H       -7.77332        -7.76629         6.40603
   H       -4.93659       -10.25392         9.50570
   H       -3.49910       -10.17908         8.47294
   H       -4.58338       -11.56427         8.36319
   H       -6.10189       -11.49884         4.03645
   H       -5.31124       -17.92547         0.67996
   H       -3.46819       -21.84794        -1.27671
   H       -6.55839       -22.74696         2.90865
   H       -5.57994       -21.48363         3.65111
   H       -4.84937       -23.05000         3.25037
   H       -7.47542       -18.29448        -6.18690
   H       -7.02009       -13.90223        -8.27295
   H       -5.36308       -13.64109        -7.70250
   H       -6.71863       -13.04905        -6.74725
   H       -5.43568       -19.42446        -6.28402
   H       -4.19532       -23.04026        -5.94337
   H       -3.62599       -23.53286       -11.17385
   H       -6.94631       -19.47804       -13.02025
   H       -3.61161       -23.09516       -13.62834
   H       -6.99607       -19.89651       -10.61383
*
