# ORCA input file
# SCF done       -329.248315728870          0.000953161507
! CAM-B3LYP def2-SVP def2/J RIJCOSX Grid4 TightSCF
%maxcore 5000
%tddft
    Mode sTDDFT
    Ethresh 5.0
    maxcore 5000
end

%pal
  nprocs 6
  end
* xyz 0 1
   C        1.57591         0.86940         0.75405
   C        1.93749         1.12822         2.14131
   C        3.24389         0.98054         2.61853
   C        3.56538         1.21953         3.94791
   C        2.57790         1.63104         4.83866
   C        1.27803         1.82585         4.38104
   C        0.97723         1.58377         3.04680
   F       -0.27685         1.76354         2.62055
   F        0.32908         2.23577         5.22455
   F        2.87816         1.84258         6.12017
   F        4.81851         1.05098         4.37678
   F        4.22019         0.62481         1.77910
   C        1.92906        -0.22218         0.04302
   C        1.59295        -0.28787        -1.39559
   C        1.88309         0.77400        -2.25298
   C        1.61339         0.71227        -3.61615
   C        1.03304        -0.43189        -4.15551
   C        0.72268        -1.50029        -3.31930
   C        1.00090        -1.41928        -1.95950
   F        0.66182        -2.45242        -1.18499
   F        0.16061        -2.59940        -3.82332
   F        0.77496        -0.50365        -5.45934
   F        1.91315         1.74276        -4.40664
   F        2.45796         1.87794        -1.76999
   C        2.58994        -1.39299         0.57612
   C        3.37342        -2.26387        -0.12396
   C        3.85805        -3.34617         0.64885
   C        3.44500        -3.25257         2.00061
   S        2.39334        -1.88283         2.24680
   C        3.81820        -4.15832         2.97740
   C        3.37465        -4.01526         4.36887
   C        2.77967        -5.07320         5.04991
   C        2.35755        -4.91436         6.35589
   C        2.51923        -3.70434         7.01929
   C        3.11791        -2.65066         6.33711
   C        3.53827        -2.80019         5.03126
   C        2.04464        -3.52466         8.42766
   C        4.65702        -5.20992         2.55923
   C        5.06402        -5.31517         1.20259
   C        4.66522        -4.41693         0.22544
   C        5.01047        -4.59113        -1.19018
   C        4.01030        -4.54656        -2.15878
   C        4.31644        -4.73228        -3.49328
   C        5.62427        -4.96522        -3.89883
   C        6.61996        -5.00992        -2.92841
   C        6.32173        -4.82934        -1.59305
   C        5.96360        -5.18261        -5.34065
   S        6.09282        -6.70360         0.95190
   C        5.97297        -7.13153         2.64111
   C        5.19611        -6.24589         3.34813
   C        6.63703        -8.28054         3.16739
   C        7.53081        -9.04571         2.38902
   C        8.24691       -10.18468         2.89925
   N        9.10034       -10.83467         2.07709
   C        9.25179       -10.43230         0.85960
   C        8.53644        -9.31712         0.35280
   N        7.71621        -8.66567         1.10781
   F        8.68982        -8.91159        -0.90498
   F       10.11087       -11.10379         0.09196
   C        8.07149       -10.63529         4.22671
   C        7.14531        -9.89520         4.99299
   C        6.44759        -8.73540         4.49019
   N        5.63816        -8.21493         5.41630
   S        5.74233        -9.08135         6.76190
   N        6.81279       -10.16068         6.25671
   C        8.75692       -11.74940         4.80289
   C        9.76355       -12.50476         4.25426
   C       10.23996       -13.52349         5.10409
   C        9.53665       -13.55616         6.33713
   S        8.34433       -12.28540         6.42011
   C        9.76954       -14.51454         7.30969
   C        8.97224       -14.59977         8.53875
   C        8.39129       -15.81327         8.90526
   C        7.62274       -15.90528        10.04748
   C        7.41237       -14.79464        10.85869
   C        7.98969       -13.58734        10.48803
   C        8.75647       -13.48568         9.34251
   C        6.56592       -14.90871        12.08857
   C       10.78431       -15.44975         7.03800
   C       11.47615       -15.42195         5.80205
   C       11.24252       -14.47294         4.82175
   C       12.00787       -14.43787         3.57169
   C       12.17588       -15.58747         2.80568
   C       12.90319       -15.54731         1.63113
   C       13.48783       -14.36676         1.19264
   C       13.32831       -13.22189         1.96761
   C       12.59941       -13.25201         3.13804
   C       14.27096       -14.30982        -0.08148
   S       12.67795       -16.68452         5.72222
   C       12.28554       -17.20310         7.34891
   C       11.27535       -16.46482         7.89289
   C       12.93316       -18.34186         7.96209
   C       12.09557       -19.10887         8.90868
   C       12.58893       -19.49646        10.15541
   C       11.80150       -20.17631        11.07866
   C       10.48244       -20.49047        10.76499
   C        9.97009       -20.12632         9.52331
   C       10.77365       -19.44794         8.61378
   F       10.25456       -19.14461         7.42175
   F        8.70929       -20.42627         9.20868
   F        9.71742       -21.13411        11.64394
   F       12.30453       -20.52168        12.26376
   F       13.84304       -19.19109        10.49698
   C       14.19057       -18.75955         7.70383
   C       15.17935       -18.04221         6.91249
   C       15.42816       -16.67531         7.07400
   C       16.39215       -16.01557         6.32338
   C       17.14784       -16.71916         5.38962
   C       16.94299       -18.08697         5.23083
   C       15.97685       -18.72890         5.99400
   F       15.78555       -20.04182         5.83041
   F       17.67249       -18.77223         4.34893
   F       18.06913       -16.08975         4.66135
   F       16.60084       -14.70948         6.49910
   F       14.75325       -15.98265         7.99570
   H        0.94811         1.62097         0.29679
   H        3.63918        -2.11964        -1.15653
   H        2.62744        -6.01497         4.54380
   H        1.89291        -5.74460         6.86851
   H        3.26012        -1.70438         6.83917
   H        4.02825        -1.98008         4.52704
   H        1.92240        -4.48401         8.92412
   H        1.08131        -3.01394         8.43243
   H        2.74513        -2.91713         8.99656
   H        2.98296        -4.39878        -1.85721
   H        3.52514        -4.70390        -4.22922
   H        7.64222        -5.19190        -3.22626
   H        7.11055        -4.85412        -0.85680
   H        5.10904        -4.97826        -5.97986
   H        6.27306        -6.21473        -5.49912
   H        6.78895        -4.54052        -5.64154
   H        5.03485        -6.33990         4.40563
   H       10.13335       -12.33814         3.26133
   H        8.52067       -16.67819         8.27028
   H        7.17176       -16.85085        10.31395
   H        7.83864       -12.71297        11.10461
   H        9.20809       -12.54145         9.07851
   H        6.87863       -15.75848        12.69270
   H        5.52360       -15.06528        11.81204
   H        6.62947       -14.00709        12.69165
   H       11.70922       -16.51076         3.11639
   H       13.01263       -16.44790         1.04414
   H       13.78420       -12.29682         1.64557
   H       12.50591       -12.35977         3.73954
   H       14.33433       -15.29003        -0.54641
   H       15.28013       -13.94712         0.10852
   H       13.79791       -13.62217        -0.78153
   H       10.91591       -16.60714         8.89696
   H       14.52092       -19.71507         8.08637
*
