# ORCA input file
# SCF done       -257.955916891172          0.000499545756
! CAM-B3LYP def2-SVP def2/J RIJCOSX Grid4 TightSCF
%maxcore 5000
%tddft
    Mode sTDDFT
    Ethresh 5.0
    maxcore 5000
end

%pal
  nprocs 6
  end
* xyz 0 1
   C        2.37242         1.01685        -1.18525
   C        3.60258         1.00517        -1.78876
   C        4.25344        -0.16925        -2.22133
   N        4.83192        -1.08576        -2.60037
   C        4.41816         2.13413        -2.01703
   N        5.15621         2.99182        -2.21373
   C        1.59172        -0.16516        -0.84365
   C        0.49462         0.24352        -0.03551
   C       -0.41806        -0.64838         0.44836
   C       -0.27823        -2.01747         0.12897
   C        0.81135        -2.43381        -0.68904
   C        1.74577        -1.48689        -1.16808
   C        0.93544        -3.80105        -1.00925
   C        0.02899        -4.71446        -0.54419
   C       -1.04271        -4.30346         0.26229
   C       -1.19252        -2.98382         0.59213
   C        0.52966         1.70587         0.14735
   O       -0.22994         2.34711         0.84371
   C        1.65408         2.18468        -0.69514
   C        1.91912         3.45501        -1.12238
   C        1.32606         4.69159        -0.78295
   C        0.47559         5.05978         0.23076
   C        0.11935         6.42166         0.20939
   C       -0.77888         7.08999         1.07523
   C       -1.37427         6.44304         2.22272
   C       -2.64694         6.58546         2.70623
   C       -2.88923         5.83079         3.86862
   C       -1.80538         5.12300         4.29246
   S       -0.45353         5.36913         3.24158
   C       -1.68913         4.22353         5.46926
   C       -1.06191         8.41271         0.75806
   C       -0.48716         9.09680        -0.34326
   C        0.43073         8.44149        -1.18992
   C        0.71184         7.11457        -0.88048
   S        1.74429         6.06670        -1.80261
   C        1.03429         9.08116        -2.33995
   C        2.31327         8.93738        -2.80295
   C        2.56220         9.65779        -3.98670
   C        1.47711        10.33983        -4.44516
   S        0.11343        10.11465        -3.40127
   C        1.36241        11.19221        -5.65701
   C       -0.91873        10.44122        -0.41465
   C       -1.80086        10.79622         0.56695
   S       -2.11863         9.46311         1.66363
   C       -2.46696        12.04822         0.75983
   C       -3.01038        12.40784         1.94776
   C       -3.71212        13.63127         2.13253
   C       -4.10818        14.39107         1.08475
   C       -3.78536        13.93144        -0.32197
   C       -2.52442        13.04600        -0.38811
   N       -2.42335        12.37337        -1.66405
   C       -3.49051        12.02091        -2.22984
   C       -4.82163        12.37949        -1.70285
   N       -4.97140        13.27994        -0.83889
   F       -5.88419        11.74877        -2.19001
   F       -3.43103        11.37859        -3.39090
   C       -4.93461        15.54978         1.21840
   C       -5.72685        16.11499         0.25946
   C       -6.46946        17.23069         0.70768
   C       -7.42064        17.98078        -0.01324
   C       -7.85306        17.61489        -1.34573
   C       -8.19260        18.43702        -2.38474
   C       -8.64075        17.74250        -3.52472
   C       -8.66531        16.39099        -3.36468
   S       -8.11069        15.94415        -1.78602
   C       -9.08534        15.34740        -4.33582
   C       -7.96904        19.08114         0.64266
   C       -7.63627        19.42553         1.98063
   C       -6.72422        18.63659         2.72623
   C       -6.16053        17.56210         2.05347
   S       -5.03962        16.41289         2.73952
   C       -6.40428        18.91105         4.10935
   C       -5.19350        18.78218         4.73395
   C       -5.23425        19.09755         6.10503
   C       -6.47272        19.45245         6.54543
   S       -7.62311        19.41577         5.25155
   C       -6.89308        19.84506         7.91501
   C       -8.31287        20.58334         2.38873
   C       -9.17322        21.10512         1.43886
   S       -9.15371        20.16120        -0.03408
   C       -9.92748        22.26855         1.69279
   C      -10.84322        22.92434         0.91795
   C      -11.56441        24.12583         1.30103
   C      -11.40696        24.85995         2.44908
   C      -12.13948        26.02860         2.74554
   N      -12.69569        26.98538         3.05179
   C      -10.50120        24.58662         3.49481
   N       -9.79705        24.44558         4.39203
   C      -12.49650        24.44380         0.22382
   C      -12.33657        23.48205        -0.81384
   C      -11.29373        22.51892        -0.42642
   O      -10.89570        21.58264        -1.09283
   C      -13.08069        23.51831        -1.95718
   C      -14.04262        24.54030        -2.11969
   C      -14.20984        25.50783        -1.08763
   C      -13.42248        25.44380         0.08525
   C      -15.17249        26.52326        -1.25911
   C      -15.93490        26.58109        -2.39397
   C      -15.77009        25.62702        -3.40900
   C      -14.84370        24.62856        -3.27490
   H       -1.24041        -0.31236         1.06258
   H        2.55606        -1.83250        -1.79011
   H        1.76301        -4.11287        -1.62945
   H        0.13270        -5.75941        -0.79552
   H       -1.74921        -5.03747         0.62020
   H       -2.01619        -2.66096         1.21217
   H        2.68012         3.55082        -1.88920
   H        0.10560         4.35170         0.94754
   H       -3.40083         7.17805         2.22056
   H       -3.83855         5.81262         4.37398
   H       -2.63448         4.18751         6.00539
   H       -0.91195         4.57409         6.14816
   H       -1.42388         3.21485         5.15327
   H        3.06637         8.36456        -2.29272
   H        3.51657         9.66639        -4.48239
   H        2.31833        11.23450        -6.17350
   H        1.06060        12.20435        -5.38865
   H        0.61172        10.79232        -6.33846
   H       -0.57606        11.13557        -1.15691
   H       -2.91943        11.74121         2.79270
   H       -3.98221        13.92240         3.13673
   H       -3.62138        14.81560        -0.95435
   H       -1.63226        13.68322        -0.31244
   H       -5.80223        15.71297        -0.73240
   H       -8.09636        19.50653        -2.35008
   H       -8.94082        18.23308        -4.43355
   H       -9.38245        15.81028        -5.27386
   H       -9.92599        14.77459        -3.94448
   H       -8.27137        14.64876        -4.52854
   H       -4.29058        18.50924         4.21880
   H       -4.37046        19.06233         6.74488
   H       -6.03928        19.81741         8.58770
   H       -7.66040        19.16888         8.29156
   H       -7.30949        20.85213         7.91504
   H       -8.18288        21.05154         3.34776
   H       -9.73571        22.68089         2.67626
   H      -12.93843        22.77469        -2.72733
   H      -13.57722        26.19077         0.84721
   H      -15.29572        27.25563        -0.47474
   H      -16.66984        27.36269        -2.51558
   H      -16.38078        25.68702        -4.29752
   H      -14.71216        23.89092        -4.05312
*
