# ORCA input file
# SCF done       -211.731971640647          0.000554094084
! CAM-B3LYP def2-SVP def2/J RIJCOSX Grid4 TightSCF
%maxcore 5000
%tddft
    Mode sTDDFT
    Ethresh 5.0
    maxcore 5000
end

%pal
  nprocs 6
  end
* xyz 0 1
   C        5.90507         1.42912        -0.13974
   S        7.00960         2.60288        -0.77746
   C        5.64171         3.50053        -1.37141
   C        4.46948         2.81846        -1.03267
   N        4.66539         1.67466        -0.34413
   C        3.06637         3.18570        -1.33181
   O        2.12226         2.72471        -0.75187
   O        2.97148         4.08526        -2.33129
   C        1.66063         4.47404        -2.73084
   C        5.77631         4.72403        -2.07126
   C        6.96818         5.28428        -2.40940
   C        7.10638         6.48523        -3.14488
   C        8.17311         7.37658        -3.10785
   N        9.39908         7.23422        -2.43294
   O        9.60294         6.21068        -1.79973
   O       10.19493         8.15133        -2.52584
   C        7.83211         8.55715        -3.85025
   C        6.56074         8.43021        -4.31820
   C        6.06837         7.12961        -3.97058
   C        4.94132         6.51768        -4.48922
   C        4.82161         5.13721        -4.85080
   C        3.67105         4.96256        -5.55966
   C        2.97424         6.20839        -5.61757
   N        1.67272         6.33940        -6.13675
   O        1.22181         5.39003        -6.75303
   O        1.06364         7.37349        -5.91963
   C        3.72722         7.19471        -4.97767
   C        3.36264         8.53546        -4.76575
   C        3.78836         9.30048        -3.71060
   C        3.51480        10.67360        -3.60886
   N        3.76908        11.43856        -2.50059
   C        4.35721        10.99410        -1.25858
   C        5.87973        10.93054        -1.35302
   C        3.44115        12.79183        -2.70267
   O        3.51609        13.63944        -1.84378
   C        2.98353        12.84350        -4.08273
   C        3.00414        11.54037        -4.59565
   C        2.55957        11.59059        -5.97818
   O        2.44757        10.73293        -6.82405
   N        2.28496        12.95289        -6.20093
   C        1.75554        13.41043        -7.46458
   C        0.26239        13.71118        -7.37145
   C        2.56029        13.72192        -5.09938
   C        2.50929        15.12697        -5.08247
   C        2.99507        15.86142        -4.03388
   C        3.10559        17.26732        -4.02577
   C        4.16626        17.96886        -3.45723
   N        5.26901        17.44351        -2.75021
   O        5.47143        16.24249        -2.79059
   O        5.96684        18.24094        -2.15120
   C        4.09375        19.34465        -3.84625
   C        3.00558        19.51768        -4.64147
   C        2.27404        18.28295        -4.71294
   C        0.98133        18.09622        -5.15122
   C        0.17941        16.91026        -4.93829
   C       -0.91471        16.96410        -5.72924
   C       -0.86812        18.19855        -6.47651
   N       -1.86974        18.58246        -7.38686
   O       -2.73594        17.76362        -7.63921
   O       -1.81441        19.70035        -7.87137
   C        0.21690        18.95448        -6.07626
   C        0.50707        20.27193        -6.55899
   C        0.73209        21.34504        -5.76997
   C        0.99020        22.63603        -6.31117
   S        1.09283        24.05624        -5.26080
   C        1.42170        25.02299        -6.65551
   C        1.42779        24.20458        -7.78689
   N        1.18933        22.90506        -7.55962
   C        1.67616        24.66561        -9.17016
   O        1.88370        25.81205        -9.49187
   O        1.64474        23.64811       -10.02602
   C        1.85841        23.97605       -11.39029
   C        1.64555        26.43689        -6.59830
   C        1.62384        27.15316        -5.47508
   H        6.26193         0.56513         0.38468
   H        1.63402         5.56253        -2.77718
   H        0.92807         4.10616        -2.01079
   H        1.45360         4.05305        -3.71536
   H        4.84975         5.21563        -2.32651
   H        7.88744         4.83955        -2.04671
   H        8.50330         9.38313        -3.99143
   H        6.05058         9.11850        -4.96347
   H        5.58096         4.39922        -4.68283
   H        3.31235         4.05648        -6.00989
   H        2.65456         8.95800        -5.47086
   H        4.34124         8.83428        -2.90703
   H        3.93643        10.02362        -0.98370
   H        4.07003        11.73093        -0.50371
   H        6.19884        10.23841        -2.12993
   H        6.29293        10.60471        -0.40289
   H        6.27666        11.91626        -1.58209
   H        1.92420        12.59604        -8.17423
   H        2.31240        14.29005        -7.79912
   H       -0.27959        12.81584        -7.07760
   H       -0.10768        14.03607        -8.33944
   H        0.06563        14.49391        -6.64235
   H        2.15871        15.63228        -5.97110
   H        3.45891        15.33935        -3.20368
   H        4.82159        20.08059        -3.56103
   H        2.70776        20.43572        -5.10277
   H        0.41193        16.14797        -4.22163
   H       -1.72203        16.26083        -5.80408
   H        0.42137        20.44291        -7.62517
   H        0.66965        21.27495        -4.69216
   H        1.76395        23.04519       -11.94281
   H        2.85333        24.40584       -11.52691
   H        1.11518        24.70128       -11.72822
   H        1.83687        26.89827        -7.55723
   H        1.43146        26.69948        -4.51533
   H        1.79770        28.21421        -5.48463
*
