# ORCA input file
# SCF done       -169.143768015825          0.000453139110
! CAM-B3LYP def2-SVP def2/J RIJCOSX Grid4 TightSCF
%maxcore 5000
%tddft
    Mode sTDDFT
    Ethresh 5.0
    maxcore 5000
end

%pal
  nprocs 6
  end
* xyz 0 1
   C       -1.62307         1.66634         3.30257
   C       -1.02889         1.25398         2.15278
   C       -0.19721         1.83703         1.08011
   O        0.23770         2.95180         0.94991
   N        0.00878         0.78903         0.19295
   C        0.77556         0.92344        -1.02108
   C       -0.58716        -0.41230         0.57184
   O       -0.52816        -1.43217        -0.06490
   C       -1.25413        -0.11421         1.84950
   C       -2.03323        -0.76515         2.77815
   S       -2.48365         0.37264         4.04222
   C       -2.47632        -2.11392         2.82773
   C       -2.11874        -3.15210         1.99916
   C       -2.81251        -4.32848         2.41580
   C       -3.65864        -3.93088         3.55799
   C       -3.43730        -2.61361         3.80105
   C       -4.59860        -4.70993         4.24532
   N       -5.41743        -5.27649         4.81712
   C       -2.72645        -5.59016         1.87286
   C       -3.42503        -6.75494         2.29408
   C       -3.16117        -7.78851         1.41246
   C       -2.22551        -7.28981         0.41437
   C       -1.93927        -5.99125         0.69358
   C       -1.01401        -5.22771        -0.03159
   N       -0.22371        -4.68001        -0.65820
   C       -3.73726        -9.07765         1.52058
   N       -3.83346       -10.02574         0.53466
   C       -3.39153        -9.92911        -0.83057
   C       -4.53896       -11.16680         0.96787
   O       -4.77130       -12.11767         0.25194
   C       -4.86244       -10.88570         2.34957
   C       -4.36393        -9.60618         2.65866
   C       -4.62844        -9.34443         4.06188
   O       -4.35519        -8.41717         4.78796
   N       -5.31484       -10.49650         4.49756
   C       -5.78756       -10.61394         5.85024
   C       -5.46931       -11.42184         3.49706
   C       -6.14376       -12.64677         3.66439
   C       -6.32554       -13.53383         2.64085
   C       -7.03231       -14.75082         2.74525
   C       -7.28999       -15.61601         1.69641
   C       -8.06000       -16.71397         2.16724
   C       -8.25206       -16.48372         3.61333
   C       -7.64306       -15.31591         3.94211
   C       -8.93720       -17.30511         4.51629
   N       -9.48868       -17.95034         5.29041
   C       -8.56414       -17.76800         1.43900
   C       -9.36760       -18.84528         1.91761
   C       -9.69658       -19.66252         0.86227
   C       -9.08787       -19.11863        -0.34535
   C       -8.40780       -17.99151        -0.01057
   C       -7.68880       -17.19383        -0.90877
   N       -7.10665       -16.55788        -1.66725
   C      -10.49835       -20.83398         0.91705
   C      -10.92508       -21.68456        -0.07920
   C      -10.80658       -21.83119        -1.53974
   O      -10.22303       -21.16136        -2.35636
   N      -11.54779       -22.96650        -1.84879
   C      -11.69517       -23.46088        -3.19550
   C      -12.14083       -23.58095        -0.75153
   O      -12.82710       -24.56783        -0.80122
   C      -11.73569       -22.74971         0.39777
   C      -11.93445       -22.73130         1.74139
   S      -11.12673       -21.39457         2.46174
   H       -1.61483         2.63629         3.75828
   H        1.48241         1.74146        -0.89299
   H        0.11971         1.14173        -1.86636
   H        1.29885        -0.01273        -1.21053
   H       -1.43122        -3.09591         1.17748
   H       -3.89726        -2.01429         4.56530
   H       -4.06541        -6.81110         3.15187
   H       -1.78680        -7.85987        -0.38106
   H       -3.71804        -8.99092        -1.28004
   H       -3.84234       -10.76585        -1.36628
   H       -2.30563       -10.01855        -0.90127
   H       -5.49871        -9.69705         6.36463
   H       -5.32938       -11.46752         6.35349
   H       -6.87445       -10.71150         5.87813
   H       -6.54195       -12.86091         4.64572
   H       -5.92262       -13.29959         1.66388
   H       -6.97104       -15.47480         0.68233
   H       -7.61162       -14.88327         4.92466
   H       -9.66978       -18.98410         2.93738
   H       -9.17948       -19.55374        -1.32266
   H      -11.29072       -22.71164        -3.87372
   H      -12.75009       -23.63458        -3.40721
   H      -11.15197       -24.39951        -3.31633
   H      -12.49895       -23.41148         2.34762
*
