# ORCA input file
# SCF done       -197.168014576768          0.000563736798
! CAM-B3LYP def2-SVP def2/J RIJCOSX Grid4 TightSCF
%maxcore 5000
%tddft
    Mode sTDDFT
    Ethresh 5.0
    maxcore 5000
end

%pal
  nprocs 6
  end
* xyz 0 1
   C       -4.32597         1.70570         8.55115
   C       -4.84708         1.82173         9.80914
   F       -5.10293         3.03170        10.32304
   C       -5.12152         0.67458        10.58106
   F       -5.63207         0.81899        11.81116
   C       -4.87131        -0.57348        10.08353
   C       -4.33481        -0.72595         8.79023
   C       -4.05503         0.43297         8.00916
   C       -3.51177         0.30477         6.71045
   C       -3.25287        -0.94425         6.20927
   C       -3.54244        -2.09476         6.99367
   C       -4.07014        -2.00346         8.24931
   C       -3.20183        -3.31183         6.23140
   O       -3.40130        -4.45499         6.57750
   C       -2.66879        -2.83106         4.92917
   C       -2.68934        -1.38038         4.93483
   C       -2.19457        -0.55389         3.95983
   C       -2.22508         0.85496         4.03019
   N       -2.22760         2.00266         4.02836
   C       -1.56058        -0.98227         2.77378
   N       -1.01291        -1.25007         1.80105
   C       -2.37850        -3.63272         3.86157
   C       -2.20346        -5.03857         3.86828
   C       -2.38806        -5.85489         2.76760
   C       -2.16145        -7.20804         3.14908
   C       -1.73147        -7.17014         4.55374
   C       -1.75354        -5.87672         4.97207
   C       -1.24998        -8.24565         5.31221
   N       -0.80192        -9.09115         5.94725
   C       -2.31932        -8.34165         2.37837
   C       -2.23726        -9.68518         2.81423
   C       -2.38861       -10.53304         1.72924
   C       -2.58790        -9.70221         0.54848
   C       -2.57882        -8.39758         0.92775
   C       -2.76497        -7.31270         0.06383
   N       -2.92939        -6.44898        -0.67517
   C       -2.36517       -11.94357         1.84848
   N       -2.14136       -12.87979         0.86291
   C       -1.80122       -12.65144        -0.52212
   C       -0.43740       -11.98762        -0.68225
   C       -2.13571       -14.18536         1.37612
   O       -1.92297       -15.17292         0.68935
   C       -2.42468       -14.03000         2.78088
   C       -2.55172       -12.65058         3.04227
   C       -2.91834       -12.48961         4.43788
   O       -3.18563       -11.52073         5.10945
   N       -2.95487       -13.80986         4.93697
   C       -3.21037       -14.06475         6.33428
   C       -1.91532       -14.28979         7.11013
   C       -2.65847       -14.73557         3.97479
   C       -2.61729       -16.12857         4.19164
   C       -2.29839       -16.98247         3.17875
   C       -2.21873       -18.38155         3.25924
   S       -2.54013       -19.32492         4.70461
   C       -2.21337       -20.80959         3.88414
   C       -1.88162       -20.59896         2.59222
   C       -1.87521       -19.23390         2.21150
   C       -1.52035       -18.95966         0.85761
   C       -1.24383       -20.05775         0.11481
   S       -1.40960       -21.55159         1.14505
   O       -2.49653       -22.36794         0.68964
   O       -0.13311       -22.17463         1.34333
   C       -0.85542       -20.24068        -1.22562
   S       -0.46362       -21.86120        -1.73796
   C       -0.09804       -21.29635        -3.30902
   C       -0.26921       -19.94330        -3.44907
   C       -0.71222       -19.32641        -2.26263
   C       -0.99228       -17.86220        -2.17651
   C       -1.06688       -17.23791        -3.56957
   C        0.11312       -17.68750        -4.42380
   C       -0.00043       -19.18822        -4.72117
   C        1.28691       -19.69705        -5.32309
   O        1.39444       -20.21301        -6.39706
   H       -4.12069         2.59408         7.97448
   H       -5.08713        -1.44178        10.68622
   H       -3.31730         1.20077         6.14368
   H       -4.27975        -2.89434         8.82169
   H       -2.29662        -3.17229         2.88382
   H       -2.72303        -5.53593         1.79903
   H       -1.44050        -5.52181         5.93391
   H       -2.08974        -9.98837         3.83086
   H       -2.76297       -10.04970        -0.45141
   H       -2.58610       -12.06504        -1.00621
   H       -1.78487       -13.64416        -0.98267
   H       -0.41766       -11.00877        -0.20876
   H       -0.21105       -11.86660        -1.73804
   H        0.33398       -12.60576        -0.22909
   H       -3.88112       -14.92246         6.43180
   H       -3.71504       -13.17323         6.71662
   H       -1.36842       -15.14440         6.71754
   H       -2.14161       -14.46907         8.15722
   H       -1.28384       -13.40780         7.03807
   H       -2.83842       -16.51711         5.17531
   H       -2.07963       -16.56717         2.20343
   H       -2.28923       -21.73662         4.41634
   H       -1.47685       -17.94591         0.49678
   H        0.22578       -21.98370        -4.06640
   H       -0.19806       -17.37935        -1.59828
   H       -1.92997       -17.69088        -1.64447
   H       -1.06839       -16.15120        -3.47786
   H       -1.99737       -17.53655        -4.05581
   H        1.04519       -17.49115        -3.88883
   H        0.13659       -17.13409        -5.36341
   H       -0.81297       -19.36614        -5.43470
   H        2.16314       -19.55043        -4.66127
*
