# ORCA input file
# SCF done       -243.918521769922          0.000723124910
! CAM-B3LYP def2-SVP def2/J RIJCOSX Grid4 TightSCF
%maxcore 5000
%tddft
    Mode sTDDFT
    Ethresh 5.0
    maxcore 5000
end

%pal
  nprocs 6
  end
* xyz 0 1
   C      -16.46730         0.23614         4.37437
   C      -17.32527        -0.07340         5.39152
   F      -17.68620         0.86448         6.27781
   C      -17.84057        -1.37891         5.52306
   F      -18.67921        -1.65369         6.53170
   C      -17.48996        -2.35685         4.63533
   C      -16.60695        -2.07008         3.57589
   C      -16.08563        -0.74995         3.44157
   C      -15.20268        -0.43743         2.38429
   C      -14.85576        -1.41449         1.48749
   C      -15.38173        -2.73063         1.62878
   C      -16.23072        -3.06257         2.64391
   C      -14.86179        -3.58067         0.54094
   O      -14.86194        -4.78774         0.47561
   C      -14.17866        -2.62935        -0.39157
   C      -14.00658        -1.36625         0.30333
   C      -13.19099        -0.33394        -0.07301
   C      -13.06317         0.87510         0.64257
   N      -12.91875         1.87531         1.18620
   C      -12.33873        -0.38132        -1.19589
   N      -11.62174        -0.38608        -2.09284
   C      -13.90941        -2.90716        -1.68586
   C      -14.36678        -4.07684        -2.37487
   C      -15.63483        -4.65456        -2.32403
   N      -16.78815        -4.20740        -1.66913
   O      -17.81653        -4.83635        -1.85360
   O      -16.73640        -3.20780        -0.95746
   C      -15.67066        -5.78589        -3.20754
   C      -14.43263        -5.95563        -3.73651
   C      -13.56880        -4.90922        -3.25869
   C      -12.21764        -4.77981        -3.57216
   C      -11.42460        -3.61271        -3.64238
   C      -10.24516        -3.91886        -4.27365
   C      -10.19540        -5.30824        -4.56727
   N       -9.12649        -5.83702        -5.27648
   O       -8.14180        -5.13186        -5.44620
   O       -9.20533        -6.97311        -5.75542
   C      -11.37619        -5.90707        -4.05501
   C      -11.69573        -7.20989        -3.69352
   C      -10.97752        -8.36405        -3.96751
   C      -11.37026        -9.63709        -3.56942
   C      -12.35301        -9.96305        -2.61053
   C      -12.37528       -11.33950        -2.42410
   O      -13.14890       -12.07462        -1.63279
   C      -14.09743       -11.40607        -0.82569
   C      -11.41589       -11.94849        -3.29747
   C      -10.72962       -10.89014        -3.97953
   C       -9.59452       -11.00906        -4.76439
   C       -9.08977       -10.13245        -5.74785
   C       -7.85430       -10.60106        -6.14703
   O       -6.99794       -10.11504        -7.01325
   C       -7.31650        -8.89040        -7.65655
   C       -7.54230       -11.82096        -5.38605
   C       -8.58399       -12.08402        -4.58871
   C      -11.39271       -13.33682        -3.52340
   C      -10.89704       -13.93884        -4.64608
   C      -10.88557       -15.32541        -4.89632
   S      -10.29195       -15.86396        -6.45159
   C      -10.57182       -17.55211        -6.10087
   C      -11.09891       -17.67254        -4.81959
   C      -11.26298       -16.43727        -4.14540
   C      -11.79213       -16.65443        -2.79779
   O      -12.10761       -15.83508        -1.96810
   C      -11.88686       -18.15921        -2.62166
   C      -11.53559       -18.77843        -3.95919
   O      -11.63587       -19.95271        -4.22612
   C      -10.20225       -18.50597        -7.07972
   C      -10.34338       -19.84792        -6.93369
   C       -9.90784       -20.78695        -7.89754
   C       -9.79051       -22.12641        -7.68349
   C       -9.71647       -23.07889        -8.82503
   O       -9.47929       -22.81007        -9.97914
   C      -10.05911       -24.39412        -8.24618
   C      -10.25567       -25.58474        -8.88480
   C      -10.61411       -26.72088        -8.12546
   C      -10.76828       -26.59825        -6.71365
   C      -11.13406       -27.73385        -5.96321
   C      -11.33450       -28.93459        -6.58425
   C      -11.18063       -29.05492        -7.98040
   C      -10.82789       -27.97212        -8.73605
   F      -11.38497       -30.24382        -8.56219
   F      -11.68081       -30.01257        -5.86971
   C      -10.55251       -25.35381        -6.07870
   C      -10.19604       -24.26808        -6.83309
   C       -9.88249       -22.89158        -6.45637
   C       -9.53110       -22.46981        -5.20212
   C       -8.95399       -21.21531        -4.90735
   N       -8.41927       -20.24290        -4.61456
   C       -9.59754       -23.29119        -4.05630
   N       -9.64071       -23.91790        -3.09621
   H      -16.08238         1.24026         4.28778
   H      -17.89468        -3.35033         4.74868
   H      -14.83098         0.57153         2.30104
   H      -16.62175        -4.06492         2.72717
   H      -13.36991        -2.18545        -2.28149
   H      -16.55629        -6.36072        -3.39808
   H      -14.15886        -6.68173        -4.47757
   H      -11.70929        -2.62137        -3.35296
   H       -9.46402        -3.23030        -4.53781
   H      -12.60532        -7.31686        -3.12007
   H      -10.08041        -8.27545        -4.55518
   H      -12.95189        -9.24787        -2.07943
   H      -14.60773       -12.18370        -0.26137
   H      -14.82085       -10.86027        -1.43746
   H      -13.60913       -10.71285        -0.13557
   H       -9.60256        -9.29549        -6.17381
   H       -6.40254        -8.55459        -8.14142
   H       -7.66417        -8.14390        -6.93829
   H       -8.09547        -9.04863        -8.40647
   H       -6.61638       -12.35373        -5.47913
   H       -8.66068       -12.85722        -3.84996
   H      -11.88336       -13.94145        -2.77082
   H      -10.51355       -13.32379        -5.45036
   H      -12.87618       -18.46802        -2.27825
   H      -11.17562       -18.49383        -1.86170
   H       -9.73176       -18.10975        -7.97114
   H      -10.82096       -20.22789        -6.04274
   H       -9.70692       -20.44110        -8.90580
   H      -10.14073       -25.65867        -9.95550
   H      -11.25317       -27.65976        -4.89357
   H      -10.71454       -28.08057        -9.80333
   H      -10.68553       -25.28635        -5.01079
*
