# ORCA input file
# SCF done       -243.466572860201          0.000942671293
! CAM-B3LYP def2-SVP def2/J RIJCOSX Grid4 TightSCF
%maxcore 5000
%tddft
    Mode sTDDFT
    Ethresh 5.0
    maxcore 5000
end

%pal
  nprocs 6
  end
* xyz 0 1
   C       -6.13606         3.37309        -4.78573
   C       -5.27214         4.43209        -4.77179
   F       -5.60673         5.58154        -5.36818
   C       -4.02012         4.32909        -4.13039
   F       -3.19512         5.38256        -4.13256
   C       -3.64979         3.16772        -3.51231
   C       -4.51833         2.05860        -3.50931
   C       -5.78493         2.16169        -4.15611
   C       -6.67547         1.06459        -4.16093
   C       -6.31472        -0.09982        -3.53332
   C       -5.04949        -0.19212        -2.88826
   C       -4.16413         0.84848        -2.87504
   C       -4.90951        -1.51409        -2.26292
   O       -3.92076        -1.95981        -1.72184
   C       -6.20455        -2.21407        -2.50891
   C       -7.02374        -1.36322        -3.36169
   C       -8.24402        -1.66778        -3.89985
   C       -8.98886        -0.78810        -4.71703
   N       -9.63822        -0.12612        -5.39242
   C       -8.92728        -2.89445        -3.75062
   N       -9.53753        -3.86438        -3.68295
   C       -6.52685        -3.45291        -2.06048
   C       -5.79784        -4.22179        -1.10581
   S       -5.77642        -5.95130        -1.27714
   C       -4.76446        -6.13581         0.11959
   C       -4.45922        -4.90010         0.67928
   C       -5.07351        -3.82371         0.00683
   C       -5.03922        -2.45358         0.56811
   O       -5.91521        -1.64411         0.38251
   C       -3.83326        -2.20550         1.43503
   C       -3.58948        -3.34688         2.42512
   C       -3.44098        -4.67478         1.73134
   O       -2.54337        -5.45365         1.94048
   C       -4.44952        -7.39577         0.70562
   N       -4.24046        -8.57818         0.05459
   C       -4.11139        -8.77726        -1.37000
   C       -2.85357        -8.11468        -1.92198
   C       -3.98099        -9.63165         0.96681
   O       -3.73483       -10.76812         0.63012
   C       -4.10458        -9.00682         2.26474
   C       -4.38139        -7.64267         2.07709
   C       -4.52764        -7.03811         3.38812
   O       -4.82135        -5.91182         3.72498
   N       -4.26085        -8.08525         4.29112
   C       -4.34443        -7.85352         5.71551
   C       -5.62713        -8.42237         6.31396
   C       -4.01678        -9.26893         3.63913
   C       -3.66491       -10.54677         4.11197
   C       -3.37333       -10.97695         5.37778
   C       -2.94557       -12.28780         5.66057
   C       -3.10303       -12.97667         6.86509
   N       -3.56166       -12.47116         8.09372
   O       -3.63738       -13.24938         9.02666
   O       -3.85159       -11.28524         8.16643
   C       -2.79085       -14.35797         6.66090
   C       -2.45897       -14.54962         5.35189
   C       -2.44905       -13.28337         4.68794
   C       -1.90706       -13.01445         3.44841
   C       -1.25608       -11.79530         3.03459
   C       -0.77025       -11.96630         1.78613
   C       -1.12769       -13.28970         1.32114
   N       -0.95277       -13.63215        -0.03284
   O       -1.42907       -14.68067        -0.44961
   O       -0.34521       -12.84449        -0.73504
   C       -1.78059       -13.97161         2.33845
   C       -2.39253       -15.26163         2.36074
   C       -1.92788       -16.38068         1.75203
   C       -0.64632       -16.41598         1.13807
   C       -0.19400       -17.16175         0.09627
   C        1.03044       -16.65708        -0.60233
   O        1.87353       -15.93310        -0.13123
   C        0.92670       -17.17692        -1.97641
   C        1.69100       -16.87418        -3.06640
   C        1.36665       -17.45375        -4.31320
   C        0.24876       -18.33344        -4.40624
   C       -0.07570       -18.89974        -5.65558
   C        0.67463       -18.60785        -6.75975
   C        1.78006       -17.73810        -6.66659
   C        2.12030       -17.17292        -5.46970
   F        2.49644       -17.46915        -7.76633
   F        0.36518       -19.14713        -7.94604
   C       -0.52289       -18.62927        -3.25955
   C       -0.18495       -18.06354        -2.05909
   C       -0.78936       -18.18703        -0.73464
   C       -1.61434       -19.20426        -0.33824
   C       -2.00762       -19.42951         0.99608
   N       -2.32895       -19.66845         2.07193
   C       -2.09023       -20.21183        -1.20480
   N       -2.50970       -21.05069        -1.86585
   H       -7.09000         3.46936        -5.28030
   H       -2.68896         3.10519        -3.02596
   H       -7.62547         1.17706        -4.65747
   H       -3.21117         0.75046        -2.37777
   H       -7.40694        -3.94340        -2.45734
   H       -3.96382        -1.26002         1.96340
   H       -2.97624        -2.11169         0.76097
   H       -4.43888        -3.44024         3.10751
   H       -2.69399        -3.15564         3.01770
   H       -5.00442        -8.40030        -1.87674
   H       -4.05506        -9.85996        -1.51308
   H       -2.86891        -7.04052        -1.75109
   H       -2.78475        -8.29703        -2.99030
   H       -1.97068        -8.52913        -1.44195
   H       -4.33189        -6.76708         5.84026
   H       -3.46138        -8.26887         6.20628
   H       -6.49308        -7.92561         5.88294
   H       -5.62909        -8.26114         7.38769
   H       -5.71048        -9.49014         6.12841
   H       -3.61548       -11.26862         3.30613
   H       -3.53807       -10.34626         6.23916
   H       -2.82637       -15.09619         7.43988
   H       -2.11510       -15.46827         4.91768
   H       -1.11489       -10.94039         3.66616
   H       -0.21631       -11.26722         1.19005
   H       -3.32239       -15.32302         2.91118
   H       -2.55043       -17.26050         1.74421
   H        0.06158       -15.66466         1.48065
   H        2.52596       -16.19578        -2.98014
   H       -0.91729       -19.56890        -5.74397
   H        2.96807       -16.50810        -5.41528
   H       -1.37352       -19.28383        -3.36330
*
