# ORCA input file
# SCF done       -233.682083075295          0.000844271832
! CAM-B3LYP def2-SVP def2/J RIJCOSX Grid4 TightSCF
%maxcore 5000
%tddft
    Mode sTDDFT
    Ethresh 5.0
    maxcore 5000
end

%pal
  nprocs 6
  end
* xyz 0 1
   C       -4.01950        -4.20495       -11.35376
   C       -4.31737        -2.94441       -10.91779
   F       -4.19791        -1.90162       -11.74748
   C       -4.75132        -2.72414        -9.59379
   F       -5.03190        -1.47763        -9.19922
   C       -4.87468        -3.76837        -8.72097
   C       -4.56980        -5.07777        -9.13917
   C       -4.14035        -5.30434       -10.48016
   C       -3.85117        -6.61311       -10.92801
   C       -3.99408        -7.66853       -10.06456
   C       -4.41006        -7.42925        -8.72302
   C       -4.68567        -6.17385        -8.25922
   C       -4.51377        -8.70812        -8.01135
   O       -4.68217        -8.88749        -6.82555
   C       -4.30538        -9.75948        -9.05190
   C       -3.85465        -9.10697       -10.27028
   C       -3.44271        -9.72134       -11.41990
   C       -3.42022       -11.11918       -11.62260
   N       -3.41825       -12.23890       -11.87164
   C       -3.00013        -9.02877       -12.56824
   N       -2.62496        -8.51956       -13.52533
   C       -4.58043       -11.06906        -8.82556
   C       -5.25067       -11.50600        -7.64097
   C       -4.84747       -12.52404        -6.80613
   N       -3.75135       -13.39119        -7.00146
   O       -3.61878       -14.30388        -6.20725
   O       -3.02374       -13.18533        -7.95487
   C       -5.63157       -12.49477        -5.60151
   C       -6.49433       -11.45505        -5.67024
   C       -6.39709       -10.84606        -6.97391
   C       -7.21515        -9.92530        -7.58956
   C       -7.10796        -9.57215        -8.98829
   C       -7.48880        -8.28416        -9.14355
   C       -7.93694        -7.78572        -7.86998
   N       -8.29174        -6.44324        -7.69079
   O       -8.80736        -6.08972        -6.64138
   O       -8.01788        -5.67609        -8.60440
   C       -7.95093        -8.81998        -6.93405
   C       -8.52648        -8.73809        -5.64668
   C       -9.05451        -9.77889        -4.94809
   C       -9.63619        -9.65522        -3.66356
   S      -10.11976        -8.11830        -2.98354
   C      -10.65509        -8.86832        -1.53309
   C      -11.25714        -8.07277        -0.44076
   C      -10.43054       -10.23492        -1.55068
   C       -9.86982       -10.67383        -2.76296
   C      -10.66660       -11.14756        -0.44293
   C      -11.85829       -11.56267         0.10436
   N      -13.15015       -11.12187        -0.23125
   O      -13.25815       -10.20126        -1.02736
   O      -14.09285       -11.68998         0.28910
   C      -11.60675       -12.62263         1.05616
   C      -10.28136       -12.88659         1.05970
   C       -9.62243       -11.96819         0.15792
   C       -8.26821       -11.77152        -0.00087
   C       -7.65670       -10.53954        -0.41907
   C       -6.31212       -10.61346        -0.27449
   C       -5.96614       -11.92083         0.19846
   N       -4.74916       -12.25884         0.52849
   O       -3.71134       -11.62982         0.33261
   O       -4.62556       -13.48296         1.18113
   C       -7.17773       -12.72115         0.26918
   C       -7.39468       -14.06496         0.20676
   C       -6.57392       -15.22867         0.02644
   C       -5.24898       -15.45667        -0.01403
   C       -4.12815       -14.55413         0.36339
   C       -3.09851       -15.28200         1.30427
   O       -3.39690       -15.99100         2.22035
   C       -1.77231       -14.88556         0.82907
   C       -0.56334       -15.12413         1.42507
   C        0.61165       -14.64689         0.80724
   C        0.51725       -13.93226        -0.42538
   C        1.69676       -13.45393        -1.03337
   C        2.91116       -13.67483        -0.44711
   C        3.00337       -14.38316         0.77097
   C        1.87911       -14.85954         1.38528
   F        4.20471       -14.58333         1.31978
   F        4.02836       -13.22155        -1.02096
   C       -0.74002       -13.70748        -1.02283
   C       -1.87236       -14.17668        -0.40196
   C       -3.25927       -14.06006        -0.78444
   C       -3.76687       -13.60502        -1.95997
   C       -5.15038       -13.52661        -2.22976
   N       -6.26094       -13.42816        -2.50265
   C       -2.98937       -13.09263        -3.02746
   N       -2.42314       -12.62932        -3.90867
   H       -3.69317        -4.35451       -12.37117
   H       -5.21540        -3.58641        -7.71419
   H       -3.53646        -6.75005       -11.95009
   H       -5.00344        -6.02283        -7.23874
   H       -4.25714       -11.83449        -9.52131
   H       -5.50660       -13.18871        -4.79571
   H       -7.17229       -11.16892        -4.89492
   H       -6.78627       -10.24407        -9.75937
   H       -7.49786        -7.69780       -10.04279
   H       -8.64337        -7.73827        -5.24466
   H       -9.07218       -10.77221        -5.37659
   H      -11.00756        -7.01976        -0.53983
   H      -10.93075        -8.43892         0.53197
   H      -12.34349        -8.17972        -0.49112
   H       -9.63298       -11.70355        -2.96503
   H      -12.37824       -13.08809         1.63821
   H       -9.77471       -13.57406         1.70867
   H       -8.20060        -9.66353        -0.71178
   H       -5.58850        -9.83759        -0.44010
   H       -8.44552       -14.32049         0.15861
   H       -7.17389       -16.10510        -0.18753
   H       -4.91826       -16.46030        -0.24803
   H       -0.51056       -15.66376         2.35820
   H        1.64362       -12.91194        -1.96457
   H        1.96747       -15.39779         2.31596
   H       -0.78987       -13.15661        -1.94821
*
