# ORCA input file
# SCF done       -204.398530689455          0.000710733224
! CAM-B3LYP def2-SVP def2/J RIJCOSX Grid4 TightSCF
%maxcore 5000
%tddft
    Mode sTDDFT
    Ethresh 5.0
    maxcore 5000
end

%pal
  nprocs 6
  end
* xyz 0 1
   C       -0.64334         2.72715        -0.75550
   C        0.56510         2.06443        -0.60814
   C        0.60526         0.98074         0.24701
   C       -0.54077         0.57613         0.94143
   C       -0.18324        -0.60897         1.76314
   O       -0.87151        -1.26007         2.50707
   N        1.16001        -0.83752         1.51218
   C        1.71185         0.06659         0.61262
   O        2.86006         0.06377         0.24879
   C        1.90436        -1.93520         2.09179
   C        1.83938        -3.17431         1.20597
   C       -1.73910         1.23247         0.80531
   C       -1.80157         2.33699        -0.06525
   C       -3.01432         3.08397        -0.29858
   C       -4.19123         2.89205         0.33648
   C       -5.42151         3.58549         0.10641
   C       -5.67147         4.56751        -0.88452
   C       -6.95858         5.22100        -1.01239
   N       -7.10993         6.23352        -1.88491
   C       -6.10782         6.58097        -2.65365
   C       -4.86713         5.86848        -2.59859
   N       -4.68468         4.90893        -1.72664
   C       -3.80980         6.19408        -3.48456
   N       -2.96427         6.47266        -4.20527
   C       -6.26846         7.66123        -3.55697
   N       -6.36467         8.52286        -4.30520
   C       -8.04890         4.88319        -0.18846
   C       -7.81183         3.88859         0.77784
   C       -6.52127         3.26772         0.93202
   N       -6.52693         2.36981         1.92296
   S       -7.99311         2.31244         2.56416
   N       -8.71131         3.38698         1.62661
   C       -9.32284         5.54914        -0.15900
   N      -10.11446         5.90269        -1.21145
   C       -9.92874         5.56434        -2.60132
   C       -9.99204         4.05761        -2.83000
   C      -11.31759         6.50761        -0.77374
   O      -12.18457         6.88671        -1.52934
   C      -11.20071         6.53676         0.66708
   C       -9.96854         5.93100         1.01251
   C       -9.79159         6.04747         2.44516
   O       -8.89979         5.70999         3.19471
   N      -10.96227         6.70059         2.87792
   C      -11.15945         7.03427         4.26748
   C      -10.82404         8.49631         4.55392
   C      -11.80920         6.99591         1.83400
   C      -13.06464         7.62907         1.99416
   C      -13.96612         7.76639         0.98611
   C      -15.22333         8.38987         1.14890
   S      -15.66795         9.27632         2.60382
   C      -17.24960         9.68630         1.98373
   C      -17.39939         9.14868         0.72030
   C      -16.27724         8.42933         0.25497
   C      -16.55367         7.84369        -1.06252
   O      -15.86647         7.09234        -1.70301
   C      -17.94108         8.34717        -1.45339
   C      -18.48258         9.12719        -0.26340
   O      -19.58352         9.61104        -0.16302
   C      -18.21465        10.44605         2.69644
   C      -18.02644        10.96640         3.92292
   C      -18.98456        11.79389         4.63182
   C      -18.46595        12.86410         5.37985
   C      -19.33443        13.75485         5.96232
   C      -20.71816        13.60554         5.82053
   C      -21.37685        14.72567         6.53488
   O      -22.54846        14.97608         6.65685
   N      -20.34003        15.48441         7.06063
   C      -19.08376        14.97121         6.77344
   O      -18.03904        15.45652         7.12570
   C      -20.55214        16.66913         7.86484
   C      -20.67750        16.31888         9.34311
   C      -21.24596        12.54301         5.12415
   C      -20.37928        11.60787         4.54617
   C      -20.99608        10.41910         3.94763
   C      -20.63176         9.17401         4.21472
   H       -0.70230         3.57423        -1.42352
   H        1.44712         2.37746        -1.14454
   H        1.46818        -2.14359         3.07160
   H        2.93930        -1.60426         2.20680
   H        0.80711        -3.49341         1.08110
   H        2.40282        -3.98282         1.66277
   H        2.26499        -2.95954         0.22849
   H       -2.60405         0.89262         1.35143
   H       -2.94914         3.85398        -1.05309
   H       -4.27479         2.15053         1.11948
   H       -8.97395         5.96885        -2.94652
   H      -10.74199         6.06109        -3.13758
   H       -9.19392         3.54858        -2.29223
   H       -9.88802         3.84358        -3.89003
   H      -10.94620         3.66382        -2.48743
   H      -10.48209         6.38771         4.83235
   H      -12.18892         6.80542         4.55674
   H       -9.78450         8.69262         4.30382
   H      -10.97325         8.70853         5.60890
   H      -11.45193         9.16505         3.96944
   H      -13.32456         7.99601         2.97861
   H      -13.75622         7.38012        -0.00422
   H      -18.60210         7.52254        -1.72669
   H      -17.87247         8.99519        -2.33042
   H      -19.14628        10.59161         2.16645
   H      -17.05703        10.85248         4.39498
   H      -17.39878        13.00046         5.46918
   H      -21.46824        17.14591         7.50810
   H      -19.69897        17.33170         7.70125
   H      -21.51962        15.64890         9.50015
   H      -20.83757        17.22351         9.92262
   H      -19.76865        15.83478         9.69300
   H      -22.31496        12.41700         5.04276
   H      -21.86304        10.61001         3.32858
   H      -19.79933         8.95209         4.86221
   H      -21.15588         8.33167         3.79867
*
