# ORCA input file
# SCF done       -203.948320635488          0.000828332327
! CAM-B3LYP def2-SVP def2/J RIJCOSX Grid4 TightSCF
%maxcore 5000
%tddft
    Mode sTDDFT
    Ethresh 5.0
    maxcore 5000
end

%pal
  nprocs 6
  end
* xyz 0 1
   C        2.35695         4.28318         5.50603
   C        2.49330         4.66835         6.81220
   C        3.76703         4.77465         7.39070
   C        4.88667         4.49474         6.65569
   C        4.78308         4.09853         5.30682
   C        5.93724         3.82363         4.53850
   C        5.79887         3.44999         3.22903
   C        4.50042         3.32038         2.65282
   C        3.36979         3.58541         3.37097
   C        3.48858         3.98793         4.72040
   C        4.62782         2.87526         1.25423
   O        3.75473         2.70823         0.43569
   C        6.08497         2.60164         1.06592
   C        6.79169         3.16142         2.20194
   C        8.08728         3.60731         2.20679
   C        8.93496         3.55364         1.08160
   N        9.63959         3.56059         0.17505
   C        8.68899         4.25204         3.30689
   N        9.22913         4.76742         4.17839
   C        6.50173         1.86209         0.00770
   C        7.73322         1.17542        -0.16049
   C        8.33509         0.85661        -1.36496
   C        9.54585         0.19158        -1.18610
   C        9.83958        -0.05167         0.16952
   S        8.64782         0.56467         1.21561
   C       11.08677        -0.71677         0.25929
   C       11.59648        -0.86596        -1.04600
   C       10.63765        -0.32102        -1.99604
   C       10.74531        -0.30204        -3.35497
   C       11.87180        -0.83224        -4.01934
   N       12.78749        -1.26718        -4.55490
   C        9.73563         0.23177        -4.18408
   N        8.91133         0.65157        -4.86074
   C       12.84610        -1.46487        -1.05858
   C       13.29211        -1.78944         0.22152
   S       12.11378        -1.36867         1.45282
   C       14.57778        -2.33503         0.47847
   C       15.27440        -2.63177         1.65532
   N       14.68452        -2.49257         2.93227
   O       13.47004        -2.62471         3.00611
   O       15.38665        -2.24847         3.89069
   C       16.61096        -3.08036         1.45612
   C       17.55597        -3.48224         2.53581
   C       16.93490        -3.12305         0.11642
   S       15.61130        -2.59846        -0.88942
   C       18.17129        -3.46746        -0.50963
   C       19.19069        -4.27723        -0.04984
   C       20.26346        -4.32404        -0.94386
   C       20.05393        -3.54578        -2.09317
   S       18.53541        -2.76772        -2.08222
   C       21.20474        -3.63289        -2.91610
   C       22.14470        -4.47651        -2.28393
   C       21.58052        -4.93810        -1.02481
   C       22.15651        -5.75530        -0.09822
   C       23.45561        -6.29324        -0.23151
   N       24.50871        -6.74006        -0.29656
   C       21.48089        -6.11376         1.08836
   N       20.92665        -6.40041         2.05041
   C       23.32352        -4.61677        -3.00435
   C       23.30570        -3.88470        -4.18495
   S       21.77807        -3.01105        -4.38714
   C       24.26582        -3.66321        -5.19422
   C       25.50345        -4.20553        -5.40087
   C       26.40496        -3.77912        -6.46234
   C       26.26996        -2.67993        -7.27126
   C       27.19835        -2.31731        -8.27081
   N       27.90537        -1.96266        -9.10279
   C       25.22731        -1.73058        -7.22604
   N       24.43053        -0.90303        -7.24972
   C       27.54030        -4.69339        -6.48048
   C       27.38184        -5.63052        -5.42174
   C       28.29930        -6.61113        -5.17641
   C       29.44383        -6.70204        -5.99895
   C       30.42772        -7.68907        -5.79420
   C       31.52748        -7.75851        -6.60583
   C       31.69120        -6.84384        -7.65698
   C       30.75370        -5.87298        -7.88274
   C       29.60897        -5.77207        -7.06600
   C       28.64039        -4.76784        -7.29426
   C       26.12966        -5.35689        -4.70042
   O       25.70499        -5.98333        -3.75237
   H        1.37870         4.19973         5.05577
   H        1.62061         4.89317         7.40678
   H        3.85682         5.08069         8.42214
   H        5.86975         4.57881         7.09502
   H        6.90554         3.90565         5.00733
   H        2.39547         3.49210         2.91483
   H        5.77616         1.73310        -0.79023
   H        7.92005         1.14501        -2.31376
   H       13.42752        -1.65586        -1.94318
   H       17.25017        -3.07488         3.49368
   H       18.55790        -3.12628         2.30608
   H       17.59010        -4.56867         2.61992
   H       19.14454        -4.83218         0.86671
   H       24.16597        -5.21837        -2.71266
   H       23.94328        -2.92588        -5.92028
   H       28.15233        -7.30600        -4.36296
   H       30.29577        -8.39004        -4.98306
   H       32.27707        -8.51827        -6.44249
   H       32.56501        -6.91214        -8.28747
   H       30.87619        -5.16585        -8.69001
   H       28.79508        -4.08384        -8.11320
*
