# ORCA input file
# SCF done       -216.199235117057          0.000672681702
! CAM-B3LYP def2-SVP def2/J RIJCOSX Grid4 TightSCF
%maxcore 5000
%tddft
    Mode sTDDFT
    Ethresh 5.0
    maxcore 5000
end

%pal
  nprocs 6
  end
* xyz 0 1
   C       -2.55497        -1.58034        -3.02915
   C       -3.34820        -2.56366        -2.46765
   C       -2.87431        -3.84182        -2.12240
   N       -2.55348        -4.90550        -1.82680
   C       -4.70037        -2.41162        -2.12552
   N       -5.80158        -2.32031        -1.79892
   C       -1.13532        -1.64233        -3.23205
   C       -0.69823        -0.35213        -3.68529
   C        0.63579        -0.09914        -3.98620
   C        1.54704        -1.13253        -3.82515
   C        1.10032        -2.40274        -3.36922
   C       -0.22354        -2.67382        -3.07264
   S        2.42269        -3.52982        -3.25206
   C        3.53356        -2.31834        -3.79986
   C        2.95457        -1.12843        -4.06011
   C       -1.82135         0.50138        -3.76831
   O       -1.72462         1.73700        -4.31449
   C       -2.98467        -0.22082        -3.38982
   C       -4.32075         0.13587        -3.39724
   N       -4.86900         1.37225        -3.38963
   C       -4.16501         2.49918        -2.92065
   C       -4.32739         3.74457        -3.52744
   S       -5.46247         3.91993        -4.87328
   C       -6.64042         2.68589        -4.39305
   C       -7.96275         2.85178        -4.77614
   C       -8.89056         1.86819        -4.48995
   C       -8.50434         0.74561        -3.77399
   C       -7.19452         0.59301        -3.36266
   C       -6.23594         1.54462        -3.70239
   C       -3.56985         4.82983        -3.11153
   C       -2.67458         4.68853        -2.06912
   C       -2.56120         3.47228        -1.41287
   C       -3.30287         2.38647        -1.82951
   C       -6.20817         2.34765        -0.32183
   C       -6.68483         3.55989        -0.67481
   C       -7.99574         3.73511        -1.26618
   C       -8.45610         5.01930        -1.68255
   N       -9.68906         5.13551        -2.21326
   C      -10.43395         4.06610        -2.32198
   C       -9.98610         2.82122        -1.88415
   N       -8.78582         2.67741        -1.37368
   F      -10.75587         1.73038        -1.95934
   F      -11.64027         4.23980        -2.87133
   C       -7.66572         6.18495        -1.52018
   C       -6.46098         6.06452        -0.84171
   C       -5.95730         4.78451        -0.44613
   N       -4.80718         4.81424         0.19700
   S       -4.24231         6.30842         0.38250
   N       -5.54649         7.02692        -0.48418
   N       -8.26984         7.46771        -1.98297
   C       -7.27051         8.53275        -2.10426
   C       -6.18617         8.30564        -2.95416
   S       -6.13722         6.85311        -3.94958
   C       -7.86383         6.85550        -4.31851
   C       -8.27617         6.52978        -5.60256
   C       -9.60552         6.67270        -5.94662
   C      -10.50132         7.18681        -5.02267
   C      -10.09819         7.49258        -3.73411
   C       -8.77895         7.27811        -3.36004
   C       -5.15728         9.23370        -3.04651
   C       -5.22429        10.41032        -2.32804
   C       -6.33200        10.66990        -1.53618
   C       -7.35202         9.73916        -1.42093
   C       -9.37018         7.79678        -1.03971
   C       -8.88225         7.83998         0.36460
   C       -9.55776         7.81323         1.53260
   C      -10.94187         7.77365         1.94579
   C      -12.06876         8.06080         1.18446
   C      -13.38877         7.97075         1.65701
   N      -14.49547         7.91587         1.96586
   C      -12.04891         8.55794        -0.11991
   N      -12.06888         9.00144        -1.18477
   C      -10.95798         7.46777         3.36398
   C       -9.62474         7.42971         3.86209
   C       -8.70353         7.68245         2.75887
   O       -7.49100         7.75560         2.77130
   C       -9.32885         7.18720         5.18197
   C      -10.39218         6.96177         6.06145
   C      -11.71567         6.99428         5.55941
   C      -12.01843         7.24412         4.22700
   S      -12.86974         6.68853         6.81834
   C      -11.59687         6.52410         7.98212
   C      -10.36314         6.68889         7.45759
   H        0.94534         0.87482        -4.33054
   H       -0.51945        -3.65493        -2.73968
   H        4.56939        -2.58165        -3.89385
   H        3.48929        -0.26309        -4.40921
   H       -5.03726        -0.66595        -3.46214
   H       -2.59015         2.15441        -4.38855
   H       -8.24703         3.74398        -5.31410
   H       -9.91264         1.98322        -4.81663
   H       -9.22980        -0.01000        -3.51955
   H       -6.92288        -0.27271        -2.77794
   H       -3.68097         5.77232        -3.62319
   H       -2.07599         5.53040        -1.75952
   H       -1.89045         3.36893        -0.57557
   H       -3.21316         1.43591        -1.32801
   H       -5.24944         2.26059         0.15371
   H       -6.79693         1.46556        -0.49027
   H       -5.77892         7.98891        -0.30140
   H       -7.54160         6.18407        -6.31356
   H       -9.93507         6.41005        -6.93948
   H      -11.53328         7.33887        -5.29414
   H      -10.83682         7.86462        -3.04417
   H       -4.32410         9.02315        -3.69743
   H       -4.42744        11.13281        -2.40137
   H       -6.40726        11.59856        -0.99395
   H       -8.18417         9.96683        -0.77693
   H      -10.11428         7.00244        -1.15317
   H       -9.82965         8.73873        -1.35097
   H       -7.80851         7.84467         0.50232
   H       -8.30574         7.17170         5.52487
   H      -13.04401         7.25475         3.89900
   H      -11.85845         6.31075         9.00004
   H       -9.45343         6.62204         8.02678
*
