# ORCA input file
# SCF done       -209.754750511357          0.000580619704
! CAM-B3LYP def2-SVP def2/J RIJCOSX Grid4 TightSCF
%maxcore 5000
%tddft
    Mode sTDDFT
    Ethresh 5.0
    maxcore 5000
end

%pal
  nprocs 6
  end
* xyz 0 1
   C       -1.42449        -0.79501         3.24114
   C       -1.49910        -2.15623         3.09676
   C       -0.38649        -3.02142         3.16942
   N        0.47407        -3.77970         3.21564
   C       -2.67360        -2.89551         2.84320
   N       -3.57746        -3.57275         2.63419
   C       -0.19933        -0.03865         3.48030
   C       -0.51534         1.34260         3.51794
   C        0.43013         2.31695         3.72688
   C        1.75536         1.90911         3.91111
   C        2.06320         0.52772         3.87470
   C        1.10581        -0.45680         3.66117
   S        3.75769         0.24416         4.12884
   C        4.02697         1.96034         4.27869
   C        2.90635         2.70954         4.14491
  Br        5.76011         2.60033         4.59708
   C       -1.96200         1.51072         3.30846
   O       -2.56986         2.56626         3.27043
   C       -2.51608         0.15941         3.16297
   C       -3.84439        -0.13816         3.01048
   C       -4.95522         0.71719         2.91897
   C       -6.25200         0.22363         2.78181
   C       -7.21144         1.21381         2.69165
  Cl       -8.88441         0.87544         2.51964
   C       -6.68737         2.50966         2.75042
   S       -4.95825         2.46108         2.93662
   C       -7.40350         3.72364         2.67216
   C       -6.89975         5.02652         2.70923
  Cl       -5.23410         5.36845         2.88144
   C       -7.86430         6.02317         2.59162
   C       -9.14306         5.50998         2.46368
   S       -9.13548         3.76992         2.49205
   C      -10.34125         6.23439         2.31414
   C      -10.49076         7.62700         2.23353
   C      -11.86074         8.03611         2.06109
   N      -12.18579         9.32631         1.95577
   C      -11.20417        10.19920         2.01877
   C      -11.57173        11.63281         1.89612
   O      -12.71532        12.00211         1.73413
   C      -10.44163        12.57452         1.98090
   C       -9.17056        12.19499         2.14786
   C       -8.74559        10.78913         2.26802
   O       -7.58458        10.47134         2.41492
   C       -9.84440         9.79327         2.19445
   N       -9.50701         8.52614         2.29764
   C      -12.75333         6.95545         2.01690
   S      -11.88827         5.46208         2.18506
   C      -14.15160         7.00649         1.85472
   C      -14.93533         8.13406         1.68688
   C      -16.28525         7.82509         1.54379
  Cl      -17.48796         9.01777         1.31278
   C      -16.57789         6.46215         1.60019
   S      -15.11252         5.55529         1.83783
   C      -17.83712         5.83001         1.49157
   C      -18.11570         4.46462         1.55344
  Cl      -16.90877         3.26736         1.75281
   C      -19.46585         4.15122         1.44751
   C      -20.26894         5.26536         1.28725
   S      -19.30885         6.71687         1.25601
   C      -21.66711         5.33886         1.08534
   C      -22.61784         4.41425         1.39046
   C      -22.60833         3.23716         2.23348
   C      -21.85753         3.05316         3.36545
   C      -21.96850         1.92619         4.20540
   N      -22.01191         1.02000         4.90824
   C      -20.95176         4.00928         3.86804
   N      -20.23346         4.77155         4.33718
   C      -23.73287         2.40300         1.82383
   C      -24.54788         3.14407         0.93046
   C      -23.93562         4.46668         0.69494
   O      -24.37144         5.38356         0.03986
   C      -25.70536         2.63343         0.39469
   C      -26.06827         1.32903         0.74723
   C      -25.24097         0.59420         1.63093
   C      -24.07506         1.11296         2.18072
   S      -25.87032        -0.99801         1.92114
   C      -27.21984        -0.66087         0.86936
   C      -27.20117         0.58005         0.32692
  Br      -28.52209        -1.97933         0.58520
   H        0.15605         3.35995         3.74874
   H        1.39253        -1.49480         3.64432
   H        2.89051         3.78218         4.20875
   H       -4.11134        -1.18630         2.95291
   H       -6.47657        -0.82728         2.74834
   H       -7.65788         7.07791         2.59521
   H      -10.71017        13.61899         1.89640
   H       -8.37002        12.92034         2.20422
   H      -14.52879         9.12890         1.67015
   H      -19.83073         3.14040         1.44345
   H      -22.02786         6.21321         0.55262
   H      -26.31211         3.22048        -0.27661
   H      -23.47190         0.51538         2.84421
   H      -27.95394         0.95298        -0.34324
*
