# ORCA input file
# SCF done       -206.009761241295          0.000721727278
! CAM-B3LYP def2-SVP def2/J RIJCOSX Grid4 TightSCF
%maxcore 5000
%tddft
    Mode sTDDFT
    Ethresh 5.0
    maxcore 5000
end

%pal
  nprocs 6
  end
* xyz 0 1
   C       -4.61221        -2.99415         4.39703
   C       -3.29094        -3.16395         4.72489
   C       -2.69010        -4.41866         4.95920
   N       -2.14034        -5.40574         5.16271
   C       -2.33822        -2.13498         4.87482
   N       -1.49972        -1.36216         5.01486
   C       -5.58404        -4.07348         4.24020
   C       -6.83717        -3.51005         3.89411
   C       -7.96099        -4.26853         3.67594
   C       -7.84385        -5.65661         3.80424
   C       -6.58924        -6.21296         4.14925
   C       -5.45297        -5.44313         4.37081
   S       -6.66605        -7.94527         4.25329
   C       -8.35874        -7.89954         3.83766
   C       -8.84386        -6.65190         3.63133
  Br       -9.32561        -9.50155         3.71456
   C       -6.70020        -2.04672         3.81819
   O       -7.58595        -1.25373         3.54463
   C       -5.30248        -1.74547         4.13687
   C       -4.75133        -0.48790         4.18155
   C       -5.33387         0.76194         3.93016
   C       -4.59745         1.95022         4.00798
   C       -5.33610         3.07965         3.70187
   C       -6.67222         2.76273         3.39971
   S       -6.99392         1.07279         3.47458
   C       -7.56037         3.81619         3.12516
   C       -7.07453         5.11973         3.02041
   C       -5.59883         5.36927         3.10756
   O       -4.85605         4.33734         3.75316
   C       -8.07112         6.05103         2.77585
   C       -9.33518         5.47335         2.69186
   S       -9.27260         3.74293         2.92717
   C      -10.54712         6.13687         2.44346
   C      -10.73131         7.50769         2.20031
   C      -12.10762         7.84929         1.96710
   N      -12.48633         9.09885         1.70557
   C      -11.53991        10.01369         1.67387
   C      -11.95152        11.40758         1.37522
   O      -13.10134        11.71704         1.14410
   C      -10.85542        12.39240         1.37627
   C       -9.57548        12.08044         1.60636
   C       -9.10736        10.71347         1.88722
   O       -7.93750        10.45255         2.08242
   C      -10.16991         9.67894         1.91408
   N       -9.78396         8.44535         2.16958
   C      -12.97461         6.75225         2.03783
   S      -12.07663         5.30808         2.38664
   C      -14.36416         6.79094         1.85263
   C      -15.26145         5.73408         1.92605
   C      -16.57313         6.13576         1.70097
   C      -16.67759         7.50986         1.43338
   S      -15.14377         8.30673         1.49211
   C      -17.93998         8.03358         1.09806
   C      -19.06196         7.20750         1.19735
   C      -18.92351         5.83231         1.77497
   O      -17.61396         5.28261         1.66843
   C      -20.22886         7.83890         0.80840
   C      -20.03372         9.15708         0.40300
   S      -18.33982         9.58851         0.48640
   C      -20.95836        10.08984        -0.09916
   C      -22.32422        10.08449        -0.03514
   C      -23.27605         9.36471         0.77601
   C      -23.07780         8.88304         2.04700
   C      -24.08130         8.26606         2.81996
   N      -24.85434         7.73252         3.48069
   C      -21.87264         9.01688         2.76227
   N      -20.92330         9.11939         3.40028
   C      -24.57722         9.47260         0.12038
   C      -24.47798        10.41542        -0.93326
   C      -23.08478        10.89811        -1.02120
   O      -22.63705        11.74080        -1.76462
   C      -25.55144        10.76135        -1.71680
   C      -26.77743        10.13916        -1.45581
   C      -26.86231         9.18919        -0.41037
   C      -25.77816         8.84534         0.38858
   S      -28.46544         8.53531        -0.26899
   C      -28.99489         9.53645        -1.59501
   C      -28.02215        10.31920        -2.11918
  Br      -30.78024         9.45083        -2.16256
   H       -8.89982        -3.80638         3.41413
   H       -4.52202        -5.91760         4.63158
   H       -9.86414        -6.44066         3.36795
   H       -3.70327        -0.42066         4.44567
   H       -3.55824         1.97245         4.28041
   H       -5.39199         6.28216         3.67354
   H       -5.19453         5.50047         2.08978
   H       -7.92364         7.10878         2.65342
   H      -11.15723        13.41063         1.17078
   H       -8.80146        12.83602         1.59475
   H      -14.96773         4.72182         2.13335
   H      -19.58313         5.12135         1.26926
   H      -19.20400         5.86532         2.84148
   H      -21.18713         7.35234         0.77852
   H      -20.54172        10.89852        -0.69236
   H      -25.45030        11.48880        -2.50673
   H      -25.88914         8.11195         1.17007
   H      -28.17379        10.99599        -2.94008
*
