# ORCA input file
# SCF done       -231.851209339471          0.000887224516
! CAM-B3LYP def2-SVP def2/J RIJCOSX Grid4 TightSCF
%maxcore 5000
%tddft
    Mode sTDDFT
    Ethresh 5.0
    maxcore 5000
end

%pal
  nprocs 6
  end
* xyz 0 1
   C        5.59184        -0.46255        -1.08886
   F        6.84648        -0.30998        -0.68402
   C        4.89414         0.60792        -1.65686
   C        5.61056         1.91533        -1.90777
   O        6.79132         1.95991        -2.08127
   O        4.86176         3.01786        -1.91749
   C        3.57164         0.35049        -2.01896
   F        2.83128         1.32502        -2.57959
   C        2.97541        -0.88541        -1.83685
   F        1.71185        -1.02682        -2.25482
   C        3.66057        -1.96643        -1.25438
   C        4.99140        -1.69695        -0.89202
   F        5.72520        -2.65931        -0.31532
   C        3.04638        -3.25022        -1.03937
   C        1.69513        -3.55689        -1.04773
   C        1.46266        -4.90596        -0.79519
   C        2.65182        -5.63907        -0.60427
   S        4.04052        -4.66788        -0.71226
   C        2.31925        -6.99026        -0.34505
   C        0.91528        -7.11155        -0.37108
   C        0.33207        -5.80757        -0.65234
   C       -0.99401        -5.50220        -0.74074
   C       -2.00173        -6.47606        -0.57231
   N       -2.82806        -7.25904        -0.43636
   C       -1.45240        -4.19115        -0.99161
   N       -1.83363        -3.12764        -1.18569
   C        0.48260        -8.40297        -0.10196
   C        1.54594        -9.26740         0.13164
   S        3.10414        -8.46969         0.00348
   C        1.46716       -10.64145         0.48013
   C        2.63528       -11.39655         0.71895
   C        2.59167       -12.77003         1.14826
   N        3.73139       -13.42794         1.37165
   C        4.88548       -12.82722         1.19438
   C        4.92948       -11.46268         0.76412
   N        3.82028       -10.79879         0.54584
   C        6.17424       -10.81528         0.56466
   N        7.19484       -10.32059         0.40761
   C        6.07999       -13.54966         1.43123
   N        7.05826       -14.11641         1.61566
   C        1.37422       -13.46139         1.35460
   C        0.20138       -12.72183         1.06878
   C        0.24706       -11.34026         0.64266
   N       -0.97769       -10.85174         0.44654
   S       -2.06567       -11.98787         0.75577
   N       -1.05319       -13.16280         1.15974
   C        1.36863       -14.79111         1.83780
   C        0.25769       -15.59559         2.07715
   C        0.61433       -16.83393         2.58739
   C        2.01121       -16.97707         2.74526
   S        2.87987       -15.59371         2.24530
   C        2.26437       -18.25747         3.28495
   C        1.04224       -18.93101         3.46581
   C       -0.03612       -18.05871         3.02816
   C       -1.37244       -18.33192         3.02688
   C       -1.87931       -19.57474         3.46177
   N       -2.28201       -20.58962         3.81207
   C       -2.33147       -17.39669         2.58304
   N       -3.11648       -16.64125         2.22642
   C        1.20194       -20.20374         4.01488
   C        2.52777       -20.50582         4.26111
   S        3.59667       -19.19071         3.79707
   C        3.07773       -21.70983         4.82837
   C        4.42366       -21.75654         5.22664
   C        4.98664       -22.88179         5.78302
   C        4.20021       -24.01926         5.95464
   C        2.86064       -23.98107         5.53618
   C        2.28908       -22.85526         4.98965
   S        2.08598       -25.52255         5.82331
   C        3.58058       -26.17821         6.45744
   C        3.79252       -27.50297         6.76159
   C        2.85193       -28.53370         6.84310
   C        1.48669       -28.53721         7.02020
   C        0.53741       -27.58524         7.51330
   C        0.79392       -26.49412         8.31644
   C       -0.18569       -25.59842         8.78539
   N       -0.92254       -24.81067         9.17980
   C        2.06483       -26.19442         8.83041
   N        3.09802       -25.92549         9.25814
   C       -0.80162       -28.08463         7.18936
   C       -0.68660       -29.39331         6.68882
   C        0.74250       -29.76328         6.62692
   O        1.22178       -30.82621         6.29773
   C       -1.79628       -30.12996         6.32824
   C       -3.04668       -29.53973         6.46113
   C       -3.16605       -28.24445         6.94066
   C       -2.05110       -27.50274         7.31363
   N        4.56378       -25.22950         6.47850
   C        5.79979       -25.46427         7.18139
   H        3.90836         2.87204        -1.85124
   H        0.91634        -2.83573        -1.20977
   H       -0.53872        -8.73412        -0.06247
   H       -0.74201       -15.25446         1.87949
   H        0.38926       -20.86827         4.24229
   H        5.03657       -20.87731         5.09709
   H        6.02580       -22.87449         6.06922
   H        1.25667       -22.87234         4.68393
   H        4.82411       -27.80550         6.87178
   H        3.25784       -29.53100         6.69474
   H       -1.68167       -31.13611         5.95517
   H       -3.93282       -30.09227         6.18703
   H       -4.14528       -27.79814         7.02898
   H       -2.17137       -26.49569         7.67908
   H        5.58038       -25.95932         8.12857
   H        6.28119       -24.51317         7.39088
   H        6.47647       -26.08527         6.59000
*
