# ORCA input file
# SCF done       -167.183713882930          0.000462766227
! CAM-B3LYP def2-SVP def2/J RIJCOSX Grid4 TightSCF
%maxcore 5000
%tddft
    Mode sTDDFT
    Ethresh 5.0
    maxcore 5000
end

%pal
  nprocs 6
  end
* xyz 0 1
   C       -0.88360         0.46039        -4.36538
   C       -1.12342         0.68672        -3.02264
   C       -1.63373        -0.32477        -2.23188
   F       -1.82423        -0.05293        -0.92744
   C       -1.93081        -1.59860        -2.73550
   C       -1.67282        -1.81170        -4.09352
   C       -1.16263        -0.79675        -4.87498
   F       -0.93318        -1.03934        -6.17815
   C       -2.47340        -2.65997        -1.91813
   C       -3.07149        -2.58244        -0.67904
   C       -3.48527        -3.83442        -0.21426
   C       -3.19033        -4.87646        -1.10973
   S       -2.41832        -4.31336        -2.52014
   C       -3.64245        -6.10210        -0.55808
   C       -4.22693        -5.82642         0.69419
   C       -4.14979        -4.39530         0.94923
   C       -4.61481        -3.73068         2.04561
   C       -5.24675        -4.39845         3.11646
   N       -5.76187        -4.93085         3.99179
   C       -4.50687        -2.33077         2.18701
   N       -4.43350        -1.19329         2.31015
   C       -4.71333        -6.96416         1.32252
   C       -4.50564        -8.10918         0.56257
   S       -3.69051        -7.76371        -0.95350
   C       -4.88998        -9.43372         0.90247
   C       -4.62303       -10.52756         0.05138
   C       -5.01768       -11.86898         0.37181
   N       -4.72799       -12.86374        -0.49031
   C       -4.10120       -12.59890        -1.59045
   C       -3.71221       -11.27165        -1.90804
   N       -3.97287       -10.29120        -1.10548
   F       -3.06881       -10.99779        -3.03896
   F       -3.83272       -13.60797        -2.41359
   C       -5.70582       -12.19520         1.56025
   C       -5.96954       -11.10513         2.42435
   C       -5.56895        -9.75372         2.10309
   N       -5.92449        -8.89999         3.06438
   S       -6.67313        -9.69252         4.23771
   N       -6.59402       -11.16038         3.60176
   C       -6.10323       -13.52708         1.85324
   C       -6.79683       -13.95982         2.97744
   C       -7.03164       -15.32756         2.95037
   C       -6.51096       -15.94667         1.79670
   S       -5.73783       -14.84148         0.74854
   C       -6.80268       -17.33183         1.87274
   C       -7.50323       -17.58873         3.06338
   C       -7.66886       -16.33767         3.78339
   C       -8.28354       -16.14184         4.98503
   C       -8.85849       -17.19744         5.72447
   N       -9.32392       -18.04703         6.33755
   C       -8.38255       -14.86525         5.57875
   N       -8.46837       -13.83338         6.07133
   C       -7.83743       -18.93775         3.21808
   C       -7.39331       -19.70721         2.16439
   S       -6.54840       -18.74465         0.95657
   C       -7.52438       -21.13096         1.95311
   C       -6.74118       -21.77762         0.99133
   C       -6.86163       -23.13625         0.79038
   F       -6.08703       -23.72154        -0.14086
   C       -7.74767       -23.91544         1.51543
   C       -8.53612       -23.29230         2.46506
   C       -8.42259       -21.93099         2.67256
   F       -9.23199       -21.37667         3.59417
   H       -0.48871         1.23147        -5.00577
   H       -0.91603         1.64424        -2.57246
   H       -1.87896        -2.77081        -4.54271
   H       -3.21402        -1.66440        -0.14045
   H       -5.19925        -6.99758         2.27986
   H       -7.09877       -13.28263         3.75466
   H       -8.36790       -19.33234         4.06437
   H       -6.03003       -21.21876         0.40303
   H       -7.81373       -24.97536         1.33424
   H       -9.24813       -23.85013         3.05191
*
