# ORCA input file
# SCF done       -155.182082522346          0.000845860007
! CAM-B3LYP def2-SVP def2/J RIJCOSX Grid4 TightSCF
%maxcore 5000
%tddft
    Mode sTDDFT
    Ethresh 5.0
    maxcore 5000
end

%pal
  nprocs 6
  end
* xyz 0 1
   C       -8.32430        -0.83560         3.11314
   C       -8.80278        -0.72710         1.84385
   C       -7.79109        -0.15183         1.00636
   C       -6.66393         0.08906         1.75659
   C       -6.98615        -0.30799         3.13884
   S       -6.10358        -0.01742         4.49479
   C       -5.45680         0.65713         1.28311
   N       -5.45859         1.46357         0.22601
   C       -4.20131         1.91352         0.09964
   C       -3.32736         1.36688         1.15244
   C       -1.94919         1.85756         0.98192
   O       -0.97503         1.63535         1.67318
   C       -2.05162         2.69097        -0.22480
   C       -3.43697         2.70715        -0.72715
   N       -3.52854         3.44867        -1.85526
   C       -2.30710         3.87711        -2.08390
   C       -1.33599         3.43375        -1.11385
   C       -4.10821         0.51302         1.88652
   C       -3.73419        -0.41058         2.91012
   C       -2.60710        -0.24668         3.64336
   C       -2.09504        -1.13030         4.64783
   C       -0.85669        -0.84210         5.19857
   C       -0.29170        -1.69250         6.15945
   C        0.92409        -1.62887         6.83866
   C        1.97912        -0.59542         6.63963
   C        2.17648         0.25895         7.90869
   N        2.93676         1.45075         7.58885
   C        3.29788        -1.23118         6.16038
   N        3.01640        -2.32456         5.24033
   C        0.98222        -2.78379         7.69957
   C        1.91069        -3.20663         8.57809
   C        1.77738        -4.49927         9.29931
   C        0.48804        -5.22436         9.05730
   C       -0.44802        -4.77052         8.20196
   C       -0.24938        -3.56125         7.49781
   C       -1.02219        -2.87924         6.57470
   C       -2.29549        -3.13871         6.02102
   C       -2.80889        -2.29024         5.09184
   C        2.87439        -5.45502         8.90785
   C        3.64686        -5.31475         7.82204
   C        4.67489        -6.26101         7.50967
   N        4.76350        -7.42899         8.11991
   C        5.82686        -8.05497         7.56957
   C        6.46137        -7.22521         6.53689
   C        7.62883        -7.91673         5.96840
   O        8.38831        -7.53593         5.10391
   C        7.64838        -9.18728         6.71907
   C        6.52997        -9.22962         7.68254
   N        6.55169       -10.38595         8.39089
   C        7.59164       -11.04354         7.93848
   C        8.32459       -10.35072         6.89807
   C        5.74150        -6.05328         6.49729
   C        5.93740        -4.86048         5.75656
   C        6.88163        -4.72076         4.78843
   C        7.12852        -3.52020         4.07807
   C        6.68300        -2.24351         4.28687
   C        7.23903        -1.37141         3.28323
   C        8.03061        -2.08801         2.44708
   C        8.02021        -3.45885         2.88843
   S        8.81294        -4.71555         2.21540
   H       -8.83825        -1.19315         3.98479
   H       -9.78022        -1.01487         1.50215
   H       -7.87842         0.03108        -0.04776
   H       -2.10448         4.50557        -2.93383
   H       -0.28868         3.66355        -1.12530
   H       -4.35327        -1.28950         3.01922
   H       -2.00901         0.63466         3.45374
   H       -0.32690         0.03996         4.86955
   H        1.64030         0.09051         5.85779
   H        2.63175        -0.35717         8.70142
   H        1.19089         0.57760         8.25881
   H        3.91095         1.22875         7.41984
   H        2.89358         2.12320         8.34463
   H        3.84858        -1.65193         7.00958
   H        3.92003        -0.43772         5.71502
   H        2.35752        -2.01955         4.53143
   H        3.86041        -2.61516         4.75606
   H        2.81410        -2.64891         8.77622
   H        1.88020        -4.31225        10.37952
   H        0.35898        -6.15292         9.59087
   H       -1.36368        -5.32260         8.04804
   H       -2.84997        -4.00786         6.34279
   H       -3.78683        -2.48199         4.67961
   H        3.01667        -6.31825         9.54220
   H        3.52149        -4.47257         7.15578
   H        7.83790       -12.01167         8.33909
   H        9.20321       -10.71624         6.40438
   H        5.29173        -4.02689         5.99594
   H        7.49455        -5.57189         4.51696
   H        6.05024        -1.90436         5.08691
   H        7.03971        -0.31598         3.22818
   H        8.58302        -1.73696         1.59755
*
