# ORCA input file
# SCF done       -217.807112234796          0.000922299475
! CAM-B3LYP def2-SVP def2/J RIJCOSX Grid4 TightSCF
%maxcore 5000
%tddft
    Mode sTDDFT
    Ethresh 5.0
    maxcore 5000
end

%pal
  nprocs 6
  end
* xyz 0 1
   C       -3.38389        -1.30005         3.06035
   O       -3.69296        -0.16469         3.33233
   C       -3.59419        -2.51698         3.88235
   C       -2.70949        -3.52714         3.46307
   C       -2.70129        -4.76139         4.09461
   C       -3.59160        -4.96718         5.13631
   C       -4.47963        -3.97751         5.55838
   C       -4.47428        -2.73398         4.92800
   F       -5.33260        -1.79602         5.32235
   F       -5.33288        -4.22184         6.55688
   F       -3.60833        -6.15013         5.75466
   C       -1.92686        -3.03766         2.32879
   C       -0.89237        -3.69829         1.72477
   C       -0.41439        -4.96475         2.12619
   N        0.02107        -5.98813         2.40713
   C       -0.13883        -3.18911         0.64468
   N        0.51233        -2.83142        -0.22978
   C       -2.46993        -1.74361         1.96037
   C       -2.23300        -1.01627         0.83842
   C       -3.05864         0.06963         0.43226
   C       -2.66943         1.21473        -0.39330
   N       -3.64860         2.02869        -0.67037
   C       -4.75435         1.49087        -0.08732
   C       -4.41093         0.25346         0.62488
   C       -5.60423        -0.37304         1.13195
   S       -5.69403        -1.90916         1.72964
   C       -6.65799         0.55993         0.84241
   C       -6.10768         1.68191         0.05288
   N       -7.08740         2.56347        -0.27756
   C       -8.18198         2.07595         0.23518
   C       -8.00861         0.81923         0.96538
   C       -9.04604         0.14670         1.69629
   C      -10.37661         0.35219         1.37359
   C      -11.38461        -0.28251         2.11524
   C      -12.77716        -0.22499         2.01885
   C      -13.61197         0.51792         1.03887
   C      -13.36880         2.04229         1.12384
   N      -14.57100         2.72768         0.70865
   C      -13.39207        -0.01138        -0.39234
   N      -14.33528         0.60935        -1.30837
   C      -13.29893        -1.03313         3.09535
   C      -14.56384        -1.25004         3.50522
   C      -14.85844        -2.10828         4.68746
   C      -13.66086        -2.73892         5.31511
   C      -12.39983        -2.48620         4.91187
   C      -12.16634        -1.62072         3.81908
   C      -11.00855        -1.14913         3.22186
   C       -9.64489        -1.34523         3.52549
   C       -8.69744        -0.71393         2.78280
   C      -15.92475        -3.10349         4.29682
   C      -15.66072        -4.37449         3.97927
   C      -16.64954        -5.33620         3.59886
   C      -18.10814        -5.18635         3.59873
   N      -18.75896        -6.24672         3.20884
   C      -17.80670        -7.17668         2.92364
   C      -16.46052        -6.62451         3.15922
   C      -15.45848        -7.61490         2.85935
   S      -13.82520        -7.46712         2.94954
   C      -16.21936        -8.76638         2.44385
   C      -17.65896        -8.47400         2.49774
   N      -18.38136        -9.56155         2.11225
   C      -17.51173       -10.49893         1.87671
   C      -16.11436       -10.08648         2.06230
   C      -14.95580       -10.86222         1.80323
   C      -14.83717       -12.21412         1.87704
   C      -13.72466       -12.90953         1.17081
   O      -12.74344       -12.40425         0.69200
   C      -14.13663       -14.33664         1.14524
   C      -15.31996       -14.50567         1.88962
   C      -15.69453       -13.21693         2.47217
   C      -16.52662       -13.03458         3.54320
   C      -17.28821       -14.06579         4.13343
   N      -17.93590       -14.87162         4.62974
   C      -16.63649       -11.81265         4.24406
   N      -16.70212       -10.86594         4.88892
   C      -15.92341       -15.74717         1.99182
   C      -15.32512       -16.81673         1.34122
   C      -14.14830       -16.67132         0.60746
   C      -13.54594       -15.41467         0.50793
   F      -12.42907       -15.28048        -0.19626
   F      -13.60287       -17.72614         0.00027
   F      -15.89216       -18.02094         1.41450
   H       -2.04254        -5.56411         3.80729
   H       -1.42865        -1.28477         0.16608
   H       -1.67095         1.41346        -0.74117
   H       -9.10576         2.61885         0.13649
   H      -10.63912         0.98666         0.54251
   H      -14.66732         0.36780         1.28623
   H      -12.48443         2.30068         0.52154
   H      -13.16013         2.31571         2.16366
   H      -14.76571         2.49715        -0.26147
   H      -14.47321         3.73154         0.80121
   H      -13.46801        -1.11201        -0.36898
   H      -12.38477         0.24192        -0.73010
   H      -15.27830         0.28870        -1.11101
   H      -14.11736         0.35463        -2.26549
   H      -15.41407        -0.81077         3.00177
   H      -15.31549        -1.45040         5.44665
   H      -13.85912        -3.40385         6.14169
   H      -11.55822        -2.94167         5.41138
   H       -9.36443        -1.98080         4.35114
   H       -7.65380        -0.83649         3.02116
   H      -16.93271        -2.71718         4.24980
   H      -14.64079        -4.73692         3.99824
   H      -18.64951        -4.30448         3.89252
   H      -17.83128       -11.46186         1.51716
   H      -14.08483       -10.32604         1.43805
   H      -16.83440       -15.91324         2.54316
*
