# ORCA input file
# SCF done       -197.447742750809          0.000477145134
! CAM-B3LYP def2-SVP def2/J RIJCOSX Grid4 TightSCF
%maxcore 5000
%tddft
    Mode sTDDFT
    Ethresh 5.0
    maxcore 5000
end

%pal
  nprocs 6
  end
* xyz 0 1
   C        4.07319         2.39436         4.01620
   C        3.29256         3.37281         4.82233
   O        2.27457         3.93206         4.47613
   C        3.99407         3.44964         6.11777
   C        5.16099         2.68636         6.06083
   C        5.31929         2.15704         4.71042
   C        6.50747         1.77298         4.14283
   C        6.69626         1.66245         2.74835
   N        6.91933         1.63495         1.62241
   C        7.69385         1.51902         4.85380
   N        8.68176         1.23856         5.36985
   C        5.99783         2.57644         7.17864
   C        5.65139         3.23814         8.32763
   C        4.48746         4.03346         8.41320
   C        3.62557         4.14800         7.28354
   C        2.46567         4.94452         7.37294
   C        2.17310         5.60431         8.53438
   C        3.01914         5.49615         9.64992
   C        4.14947         4.72800         9.59243
   C        3.49386         1.81129         2.93257
   C        3.85015         0.62588         2.24674
   S        4.91047        -0.59487         2.90606
   C        4.80217        -1.55363         1.47359
   C        3.93125        -0.98416         0.54754
   C        3.39046         0.23036         1.00944
   C        3.72677        -1.50906        -0.81675
   O        4.42301        -2.37264        -1.30053
   C        2.59915        -0.87113        -1.59426
   C        5.64514        -2.72243         1.39554
   C        6.93452        -2.60171         1.85805
   C        7.84050        -3.67337         1.73941
   C        9.18278        -3.79627         2.06376
   C       10.15236        -2.82450         2.64774
   C       10.95122        -2.13855         1.51592
   N       12.23442        -1.70418         2.03358
   C        9.53327        -1.77173         3.58062
   N       10.57169        -1.12971         4.37181
   C        9.59004        -5.11409         1.61958
   C       10.79644        -5.70960         1.62596
   C       11.01129        -7.03025         0.97532
   C        9.75570        -7.70169         0.49391
   C        8.55195        -7.10462         0.53381
   C        8.41951        -5.79238         1.04972
   C        7.36070        -4.91395         1.13313
   C        6.00829        -5.02357         0.72952
   C        5.17528        -3.96119         0.85337
   C       11.80140        -8.00412         1.80424
   C       11.85881        -7.99348         3.13763
   C       12.59034        -8.95383         3.91790
   S       12.44435        -8.94323         5.65027
   C       13.52751       -10.28997         5.80763
   C       13.97117       -10.71807         4.56077
   C       13.44306        -9.94634         3.50802
   C       14.93139       -11.82741         4.42034
   O       15.43220       -12.37114         5.37936
   C       15.24898       -12.24233         3.00609
   C       13.80532       -10.89007         7.06878
   C       13.91179       -10.28884         8.27630
   C       13.78813       -11.09362         9.52802
   O       13.82174       -12.30014         9.60578
   C       13.55030       -10.10453        10.59475
   C       13.65334        -8.81517        10.06996
   C       14.03161        -8.89634         8.66357
   C       14.62683        -7.90294         7.93472
   C       15.21994        -8.10614         6.67004
   N       15.74961        -8.22096         5.65838
   C       14.79869        -6.57964         8.39162
   N       14.94971        -5.48557         8.70390
   C       13.43358        -7.69472        10.88234
   C       13.12561        -7.88977        12.20317
   C       13.03135        -9.18024        12.76980
   C       13.24466       -10.32768        11.95157
   C       13.14741       -11.61404        12.52012
   C       12.85333       -11.75747        13.84808
   C       12.64298       -10.63072        14.65905
   C       12.72899        -9.37069        14.13329
   H        6.89157         1.97459         7.14061
   H        6.28243         3.16063         9.20133
   H        1.82371         5.01959         6.50950
   H        1.28588         6.21605         8.60161
   H        2.76910         6.02663        10.55683
   H        4.80229         4.64434        10.44935
   H        2.58152         2.28986         2.58848
   H        2.72630         0.85076         0.43544
   H        1.68314        -0.85685        -1.00876
   H        2.44146        -1.42995        -2.51318
   H        2.86870         0.15179        -1.85024
   H        7.26551        -1.65332         2.24910
   H       10.88667        -3.38856         3.23477
   H       10.33410        -1.32476         1.10025
   H       11.13676        -2.85702         0.70877
   H       12.06857        -1.14239         2.86691
   H       12.71411        -1.12879         1.34948
   H        8.75284        -2.25149         4.19683
   H        9.06281        -0.98288         2.98823
   H       10.94192        -1.77368         5.06347
   H       10.19001        -0.32713         4.86377
   H       11.67096        -5.22831         2.04222
   H       11.62336        -6.81807         0.07997
   H        9.87567        -8.69719         0.09472
   H        7.67445        -7.61287         0.16130
   H        5.65238        -5.95757         0.32111
   H        4.14174        -4.03371         0.55607
   H       12.30100        -8.78189         1.24485
   H       11.32854        -7.23382         3.69583
   H       13.69316       -10.10292         2.47594
   H       14.33738       -12.48271         2.46394
   H       15.75539       -11.42477         2.49685
   H       15.90314       -13.10992         3.02533
   H       13.89814       -11.97261         7.06868
   H       13.49336        -6.69842        10.47532
   H       12.94849        -7.03711        12.84278
   H       13.31091       -12.47197        11.88735
   H       12.78094       -12.74279        14.28364
   H       12.41181       -10.76747        15.70511
   H       12.56843        -8.50227        14.75576
*
