# ORCA input file
# SCF done       -196.317676376638          0.000944757935
! CAM-B3LYP def2-SVP def2/J RIJCOSX Grid4 TightSCF
%maxcore 5000
%tddft
    Mode sTDDFT
    Ethresh 5.0
    maxcore 5000
end

%pal
  nprocs 6
  end
* xyz 0 1
   C       -1.74478       -13.54684        -3.44813
   C       -2.39563       -12.52129        -2.84536
   C       -2.01259       -11.96111        -1.52919
   C       -0.91597       -12.46757        -0.80264
   C       -0.15821       -13.48944        -1.26017
   S       -0.38881       -14.32180        -2.75424
   N       -2.79716       -10.97237        -1.15678
   C       -3.71669       -10.81307        -2.15695
   C       -3.51149       -11.73088        -3.20941
   S       -4.63651       -11.51995        -4.48301
   C       -5.39085       -10.18878        -3.61231
   C       -4.78657        -9.94837        -2.38962
   C       -6.43234        -9.45705        -4.23991
   C       -7.02422        -8.37637        -3.67233
   C       -7.93715        -7.52346        -4.34499
   N       -8.65477        -7.90226        -5.39400
   C       -9.47466        -6.87073        -5.67036
   C       -9.26407        -5.75393        -4.73442
   C      -10.16947        -4.63593        -5.04273
   O      -10.26964        -3.56819        -4.47828
   C      -10.92009        -5.14876        -6.20524
   C      -10.46634        -6.51004        -6.55307
   N      -11.13942        -6.97838        -7.63174
   C      -11.95963        -6.01081        -7.96897
   C      -11.86882        -4.83811        -7.12760
   C       -8.24600        -6.13720        -3.90585
   C       -7.59477        -5.40750        -2.86243
   C       -6.31745        -5.62595        -2.49132
   C       -5.63233        -5.05339        -1.35844
   C       -4.56850        -5.75799        -0.83315
   C       -3.93890        -5.32609         0.34800
   C       -2.92919        -5.89388         1.11783
   C       -2.25056        -7.20902         0.95934
   C       -3.18595        -8.31930         1.50254
   N       -2.51221        -9.60321         1.51056
   C       -1.78681        -7.51623        -0.47542
   N       -0.51609        -8.21786        -0.41001
   C       -2.73747        -5.01951         2.25200
   C       -1.94991        -5.14391         3.33615
   C       -1.99002        -4.14025         4.44069
   C       -2.87537        -2.96533         4.18402
   C       -3.66042        -2.86103         3.09385
   C       -3.65141        -3.87723         2.11228
   C       -4.38205        -4.07855         0.95619
   C       -5.42758        -3.34031         0.35684
   C       -6.04692        -3.82738        -0.74953
   C       -0.58397        -3.75554         4.80557
   C       -0.01419        -2.60264         4.43113
   C        1.31277        -2.24537         4.82202
   N        2.01609        -2.96677         5.68252
   C        3.18972        -2.32237         5.83215
   C        3.24372        -1.10692         5.00669
   C        4.52717        -0.41345         5.19325
   O        4.91107         0.61650         4.67765
   C        5.22217        -1.27658         6.16380
   C        4.37364        -2.42898         6.52598
   N        5.00350        -3.22418         7.42280
   C        6.16320        -2.64631         7.63705
   C        6.36536        -1.42907         6.88371
   C        2.03902        -1.04497         4.34924
   C        1.53336        -0.11601         3.40042
   C        2.22471         0.95529         2.95263
   C        1.74615         1.88503         1.97531
   C        0.77722         1.67924         1.01537
   C        0.34501         2.72857         0.05317
   C        0.86256         4.03797         0.06307
   C        1.84336         4.42317         0.90773
   S        2.58288         3.41011         2.08498
   N       -0.54529         2.29326        -0.81231
   C       -0.74631         0.98014        -0.51897
   C        0.02095         0.56462         0.59430
   S       -0.22783        -1.11524         0.91293
   C       -1.32572        -1.24737        -0.44845
   C       -1.50398        -0.04818        -1.09504
   C       -1.87300        -2.54138        -0.74611
   C       -2.67492        -2.81229        -1.77398
   H       -2.04040       -13.94243        -4.40734
   H       -0.68627       -12.01328         0.15024
   H        0.68017       -13.87486        -0.70416
   H       -5.10278        -9.18161        -1.70734
   H       -6.71120        -9.73404        -5.24673
   H       -6.77602        -8.09984        -2.65864
   H      -12.62386        -6.13077        -8.80745
   H      -12.44712        -3.94231        -7.24028
   H       -8.19195        -4.64310        -2.38385
   H       -5.73099        -6.34232        -3.05373
   H       -4.24331        -6.67101        -1.30957
   H       -1.34673        -7.21644         1.57486
   H       -4.11194        -8.31383         0.90404
   H       -3.45628        -8.05565         2.53001
   H       -2.56584       -10.03952         0.58921
   H       -2.95719       -10.23248         2.16822
   H       -1.62042        -6.58087        -1.02025
   H       -2.56309        -8.09102        -1.00653
   H       -0.63106        -9.05375         0.15411
   H       -0.21977        -8.50017        -1.33826
   H       -1.27046        -5.97523         3.46124
   H       -2.39815        -4.67006         5.31925
   H       -2.87223        -2.20084         4.94603
   H       -4.30712        -2.00641         2.95878
   H       -5.73471        -2.40253         0.79518
   H       -6.85227        -3.27598        -1.20916
   H       -0.00791        -4.45816         5.39039
   H       -0.56190        -1.90462         3.81454
   H        6.86801        -3.08368         8.32292
   H        7.24124        -0.81168         6.91738
   H        0.53139        -0.28711         3.04166
   H        3.19708         1.17485         3.37802
   H        0.46117         4.73566        -0.65628
   H        2.25426         5.41925         0.90475
   H       -2.14040         0.08340        -1.94936
   H       -1.57510        -3.33371        -0.07053
   H       -2.99239        -2.05467        -2.46878
   H       -3.03900        -3.80862        -1.94863
*
