# ORCA input file
# SCF done       -192.384981449685          0.000578000008
! CAM-B3LYP def2-SVP def2/J RIJCOSX Grid4 TightSCF
%maxcore 5000
%tddft
    Mode sTDDFT
    Ethresh 5.0
    maxcore 5000
end

%pal
  nprocs 6
  end
* xyz 0 1
   C       -2.15385         5.27256        -8.03465
   C       -2.74101         6.19173        -7.21031
   C       -2.29303         6.36371        -5.89350
   C       -1.25531         5.61204        -5.40410
   C       -0.64177         4.63125        -6.23241
   C       -1.09638         4.46786        -7.56527
   C       -0.46657         3.47389        -8.34359
   C        0.53160         2.71740        -7.79226
   C        0.90226         2.96309        -6.45934
   N        0.34874         3.87896        -5.71579
   C       -0.71102         5.73040        -4.04915
   C       -0.59854         4.58374        -3.25364
   C       -1.20963         3.28735        -3.59816
   O       -2.05947         3.04489        -4.40187
   S       -0.55405         2.04216        -2.47775
   C        0.29460         3.25374        -1.45595
   O        0.93941         2.95095        -0.49556
   C        0.08887         4.59007        -2.04009
   C        0.61556         5.76907        -1.49250
   C        0.47356         6.92536        -2.27100
   C       -0.14093         6.89680        -3.53242
   C       -0.08364         8.17103        -4.26793
   O       -0.43648         8.41639        -5.38241
   S        0.67350         9.41437        -3.20989
   C        0.95573         8.25673        -1.86661
   O        1.46933         8.59795        -0.83974
   C        1.26208         5.76882        -0.17476
   C        2.55986         6.18964        -0.03962
   C        3.16852         6.19533         1.23126
   C        4.41894         6.62835         1.66580
   C        5.49022         7.39563         0.97007
   C        5.58316         7.18047        -0.54625
   N        6.94873         7.44491        -0.97068
   C        5.27854         8.88934         1.32706
   N        3.86028         9.18432         1.42799
   C        4.46732         6.39141         3.09110
   C        5.45119         6.60869         3.98472
   C        5.23113         6.37924         5.43851
   C        3.91344         5.77225         5.78832
   C        2.95855         5.51736         4.86908
   C        3.18759         5.81984         3.50892
   C        2.40295         5.70474         2.36603
   C        1.07777         5.26652         2.18933
   C        0.51861         5.30922         0.94772
   C        5.35715         7.75388         6.05661
   C        6.35598         8.12086         6.84630
   C        6.49373         9.47141         7.38722
   C        6.55705         9.69043         8.76729
   C        6.47500         8.60942         9.75739
   O        6.32768         7.43691         9.55790
   S        6.62500         9.31767        11.39932
   C        6.77371        11.00596        10.77922
   O        6.92438        11.94710        11.49977
   C        6.68716        10.97225         9.31352
   C        6.73764        12.11384         8.50762
   C        6.67466        11.89701         7.12825
   C        6.57829        10.61016         6.57552
   C        6.64631        10.58206         5.10807
   O        6.71104         9.63400         4.37437
   S        6.67851        12.26646         4.49324
   C        6.68375        12.98865         6.14681
   O        6.68062        14.16836         6.33417
   C        6.86470        13.46068         9.08858
   C        8.06618        14.12271         9.04083
   C        8.20974        15.38981         9.62143
   C        7.15485        15.99348        10.24485
   C        5.90380        15.34606        10.30939
   C        5.74840        14.06034         9.72228
   C        4.47553        13.45885         9.80164
   C        3.46342        14.11666        10.44526
   C        3.72997        15.38139        10.99996
   N        4.88756        15.97263        10.93276
   H       -2.49803         5.13791        -9.04982
   H       -3.56065         6.79699        -7.56613
   H       -2.78217         7.08580        -5.25772
   H       -0.78925         3.31973        -9.36372
   H        1.02984         1.94293        -8.35393
   H        1.68379         2.38097        -5.98771
   H        3.10865         6.49758        -0.91346
   H        6.46142         7.08863         1.37259
   H        4.84014         7.81082        -1.06348
   H        5.37680         6.13203        -0.77847
   H        7.19976         8.41071        -0.78606
   H        7.05282         7.28231        -1.96583
   H        5.80889         9.52013         0.59307
   H        5.71594         9.08654         2.30951
   H        3.35410         8.94452         0.58178
   H        3.71631        10.17101         1.60901
   H        6.40857         7.02192         3.70392
   H        6.03952         5.75654         5.84234
   H        3.75556         5.56541         6.83571
   H        2.01428         5.08231         5.16197
   H        0.51117         4.91053         3.03628
   H       -0.50502         5.00033         0.79642
   H        4.57850         8.44842         5.77442
   H        7.10265         7.40826         7.17015
   H        8.91518        13.65726         8.56065
   H        9.17015        15.88090         9.57069
   H        7.24321        16.96606        10.70202
   H        4.30807        12.48670         9.35574
   H        2.47774        13.68510        10.52935
   H        2.94930        15.92615        11.51627
*
