# ORCA input file
# SCF done       -193.799208304119          0.000520598208
! CAM-B3LYP def2-SVP def2/J RIJCOSX Grid4 TightSCF
%maxcore 5000
%tddft
    Mode sTDDFT
    Ethresh 5.0
    maxcore 5000
end

%pal
  nprocs 6
  end
* xyz 0 1
   C       22.68805         3.87628        -4.59202
   C       23.19195         4.19504        -5.82278
   F       24.49377         3.98739        -6.07816
   C       22.39680         4.73611        -6.84320
   C       21.06892         4.95475        -6.60309
   C       20.49642         4.64417        -5.35211
   C       21.32258         4.09612        -4.32658
   C       20.77417         3.78532        -3.06093
   C       19.44384         4.01431        -2.83135
   C       18.61839         4.54828        -3.86530
   C       19.12485         4.86151        -5.09473
   C       17.23184         4.66963        -3.37897
   O       16.27099         5.12161        -3.95216
   C       17.24632         4.03818        -2.02338
   C       18.62985         3.83465        -1.63510
   C       19.09474         3.72145        -0.35164
   C       18.28001         3.86081         0.79193
   N       17.66902         4.04329         1.74645
   C       20.45985         3.56779        -0.02735
   N       21.55720         3.42778         0.27546
   C       16.10024         3.64341        -1.41871
   C       16.01858         2.71904        -0.33750
   C       16.87625         1.53392        -0.16372
   N       16.62916         0.85073         0.91125
   C       15.63125         1.52066         1.55209
   C       15.17520         2.66657         0.74341
   C       14.18303         3.42604         1.46746
   S       13.44406         4.80657         0.97151
   C       14.06934         2.73851         2.72730
   C       14.96591         1.56599         2.74620
   N       14.93398         0.95398         3.96267
   C       14.15609         1.67758         4.70520
   C       13.58317         2.84771         4.01422
   C       12.73747         3.82507         4.59331
   S       11.81546         4.91911         3.60591
   C       11.16003         5.72094         4.99730
   C       11.65164         5.15882         6.17722
   C       12.53149         4.07820         5.95142
   C       13.13802         3.38772         7.01621
   N       13.60859         2.84975         7.91231
   C       11.29709         5.63019         7.45382
   N       10.99680         6.03275         8.48413
   C       10.25181         6.80388         4.91726
   C        9.74092         7.27247         3.75038
   C        8.81222         8.33471         3.65029
   C        8.33919         9.24207         4.71582
   N        7.45795        10.10771         4.32594
   C        7.24816         9.85300         2.99690
   C        8.12361         8.76842         2.53927
   C        7.87528         8.48013         1.15108
   S        8.67281         7.36772         0.22652
   C        6.78447         9.34212         0.79476
   C        6.45456        10.21941         1.94578
   N        5.44215        11.07027         1.63020
   C        5.10777        10.78106         0.41186
   C        5.86092         9.66377        -0.18693
   C        5.56401         9.21727        -1.49134
   C        5.81624         8.05929        -2.17018
   C        5.63274         8.08603        -3.66135
   O        5.09829         8.96545        -4.29364
   C        6.26503         6.85379        -4.15499
   C        6.46026         6.44040        -5.44146
   C        7.12501         5.21595        -5.67732
   C        7.58660         4.44756        -4.56871
   C        8.25921         3.23478        -4.81089
   C        8.44910         2.81803        -6.09973
   C        7.99831         3.55619        -7.20235
   C        7.34682         4.73873        -6.98518
   F        9.08964         1.65918        -6.33216
   C        7.36197         4.89674        -3.24574
   C        6.70088         6.07711        -3.04258
   C        6.30693         6.75965        -1.81372
   C        6.29923         6.19007        -0.55872
   C        5.61800         6.75460         0.53626
   N        5.06130         7.18020         1.44542
   C        6.76420         4.88671        -0.27052
   N        7.13351         3.84488         0.03502
   H       23.33005         3.46469        -3.82899
   H       22.85010         4.96755        -7.79396
   H       20.43738         5.37063        -7.37348
   H       21.41860         3.36457        -2.30526
   H       18.48550         5.27178        -5.86195
   H       15.17013         4.02528        -1.82604
   H       17.61121         1.19691        -0.87478
   H       13.95160         1.39653         5.72260
   H        9.95765         7.24114         5.86257
   H       10.02774         6.80014         2.81789
   H        8.68754         9.24417         5.73360
   H        4.32364        11.32133        -0.09002
   H        5.04952         9.95887        -2.10124
   H        6.11375         7.04018        -6.26969
   H        8.61737         2.63911        -3.98585
   H        8.17517         3.17664        -8.19615
   H        6.99131         5.32543        -7.81873
   H        7.72895         4.29919        -2.42673
*
