# ORCA input file
# SCF done       -193.894650765183          0.000832776435
! CAM-B3LYP def2-SVP def2/J RIJCOSX Grid4 TightSCF
%maxcore 5000
%tddft
    Mode sTDDFT
    Ethresh 5.0
    maxcore 5000
end

%pal
  nprocs 6
  end
* xyz 0 1
   C        0.84183        -0.50289        -2.22485
   C       -0.10331         0.35779        -2.77625
   C        0.35580         1.53425        -3.57587
   C       -1.47531         0.13014        -2.58024
   C       -2.48702         1.06542        -3.16010
   C       -1.89305        -0.97391        -1.84441
   C       -0.95100        -1.82687        -1.30532
   C        0.42491        -1.59234        -1.48051
   C        1.17753        -2.61335        -0.75798
   C        2.47619        -2.48014        -0.34106
   C        3.30123        -1.38739        -0.68249
   N        4.01380        -0.52084        -0.92319
   C        3.11319        -3.35383         0.56079
   N        3.67002        -4.01808         1.31420
   C        0.22601        -3.62237        -0.33837
   C       -1.14513        -3.05306        -0.51706
   O       -2.17870        -3.54201        -0.12232
   C        0.34355        -4.90886         0.08439
   C        1.45689        -5.77719         0.00848
   C        2.56155        -5.71933        -0.82765
   C        3.43951        -6.77517        -0.61250
   C        3.00232        -7.65257         0.39938
   S        1.50215        -7.19177         1.05438
   C        3.98199        -8.66155         0.56939
   C        5.03567        -8.42641        -0.33178
   C        4.73102        -7.22993        -1.10083
   C        5.49842        -6.63493        -2.05839
   C        6.74890        -7.15225        -2.45814
   N        7.76375        -7.56648        -2.79366
   C        5.07641        -5.45709        -2.71091
   N        4.72023        -4.50395        -3.23978
   C        6.05825        -9.36844        -0.23017
   C        5.79931       -10.31825         0.74126
   S        4.25481       -10.03554         1.53915
   C        6.61193       -11.42555         1.14231
   C        6.24317       -12.25759         2.19145
   C        7.00966       -13.33396         2.62042
   C        8.21903       -13.67186         2.02627
   C        8.63664       -12.85510         0.93787
   C        7.84439       -11.73356         0.49292
   N        8.37354       -11.07754        -0.53055
  Se        9.88532       -11.81659        -0.99434
   N        9.75626       -13.03850         0.25308
   C        9.01739       -14.77471         2.46509
   C        8.76098       -15.61672         3.53652
   C        9.74108       -16.59236         3.68290
   C       10.75480       -16.49640         2.71150
   S       10.49739       -15.19755         1.62921
   C       11.68694       -17.53905         2.94248
   C       11.26808       -18.28368         4.06383
   C       10.03176       -17.71056         4.56610
   C        9.29994       -18.12483         5.63998
   C        9.68981       -19.21685         6.44389
   N       10.00592       -20.09676         7.10729
   C        8.10613       -17.47833         6.02288
   N        7.13698       -16.95042         6.33484
   C       12.12996       -19.33059         4.37063
   C       13.18340       -19.42593         3.47470
   S       13.12549       -18.14440         2.26444
   C       14.23811       -20.36581         3.55903
   C       15.14428       -20.75932         2.62704
   C       16.41175       -21.41099         3.07509
   O       16.64240       -21.85365         4.17639
   C       17.30940       -21.33438         1.91034
   C       16.60990       -20.81262         0.80669
   C       17.26847       -20.63512        -0.39717
   C       18.61119       -20.98578        -0.50659
   C       19.30028       -21.52056         0.59417
   C       18.63940       -21.68845         1.80664
   C       20.73750       -21.91218         0.46880
   C       19.31504       -20.79409        -1.81147
   C       15.21844       -20.60013         1.18949
   C       14.15542       -20.55963         0.32553
   C       12.81457       -20.67927         0.74387
   N       11.71603       -20.82184         1.04568
   C       14.28776       -20.50310        -1.07631
   N       14.34583       -20.43447        -2.22064
   H        1.89034        -0.31600        -2.39519
   H        1.43929         1.54971        -3.65234
   H        0.02795         2.46248        -3.10876
   H       -0.06609         1.50493        -4.57978
   H       -2.32980         2.07773        -2.78958
   H       -3.49449         0.75240        -2.90038
   H       -2.40147         1.09639        -4.24595
   H       -2.94321        -1.16923        -1.68670
   H       -0.56975        -5.33900         0.48554
   H        2.68705        -4.96129        -1.57932
   H        6.95673        -9.38327        -0.81863
   H        5.31425       -12.05763         2.70580
   H        6.64126       -13.92199         3.44523
   H        7.90467       -15.52087         4.17741
   H       11.99976       -20.02222         5.18338
   H       14.39031       -20.79005         4.54806
   H       16.75777       -20.21972        -1.25188
   H       19.15169       -22.09770         2.66449
   H       21.34398       -21.05719         0.17197
   H       20.85908       -22.68133        -0.29332
   H       21.11567       -22.29595         1.41225
   H       18.64180       -20.37822        -2.55575
   H       19.69722       -21.74482        -2.18140
   H       20.16459       -20.12209        -1.69386
*
