# ORCA input file
# SCF done       -182.149491966025          0.000536680369
! CAM-B3LYP def2-SVP def2/J RIJCOSX Grid4 TightSCF
%maxcore 5000
%tddft
    Mode sTDDFT
    Ethresh 5.0
    maxcore 5000
end

%pal
  nprocs 6
  end
* xyz 0 1
   C       -2.67049        -1.13609        -0.03459
   C       -2.56496        -0.20065        -1.02163
   S       -1.10223        -0.30430        -1.93263
   C       -0.59237        -1.62319        -0.96760
   C       -1.53306        -1.95962        -0.00013
   C       -1.04116        -3.11021         0.76336
   O       -1.58275        -3.73271         1.64505
   C        0.34876        -3.34548         0.24074
   C        0.53455        -2.51766        -0.94448
   C        1.42725        -2.66019        -1.97596
   C        1.37735        -1.80561        -3.09919
   N        1.34150        -1.11700        -4.01543
   C        2.38804        -3.68038        -2.08761
   N        3.16665        -4.50997        -2.24369
   C        1.17645        -4.15440         0.94806
   C        2.58745        -4.26594         0.87183
   C        3.50358        -3.33003         0.42201
   C        4.81233        -3.79125         0.51455
   C        4.89868        -5.09018         1.04999
   S        3.37319        -5.72507         1.45698
   C        6.26509        -5.47958         1.06121
   C        7.03027        -4.42778         0.52826
   C        6.14300        -3.34426         0.14079
   C        6.47489        -2.19574        -0.51503
   C        5.49228        -1.24479        -0.86427
   N        4.67578        -0.48792        -1.13750
   C        7.79867        -1.92034        -0.92185
   N        8.87026        -1.72032        -1.27644
   C        8.39334        -4.70912         0.50247
   C        8.66409        -5.96998         0.99917
   S        7.22319        -6.82013         1.50960
   C        9.97266        -6.55391         1.08386
   C       10.25340        -7.84477         1.40016
   C       11.60721        -8.31008         1.39591
   C       11.93536        -9.61575         1.71467
   C       13.26554       -10.06533         1.70379
   N       14.35756       -10.42148         1.69118
   C       10.95516       -10.55625         2.07012
   N       10.14432       -11.31614         2.36130
   C       12.60073        -7.34255         1.03984
   C       12.23977        -6.06412         0.75777
   O       10.94469        -5.65543         0.77973
   C       13.13051        -4.98866         0.42261
   C       12.77221        -3.65547         0.36858
   C       13.84745        -2.84868         0.00478
   C       15.02275        -3.58084        -0.23695
   S       14.81052        -5.25690         0.01618
   C       16.04731        -2.68205        -0.63475
   C       15.50561        -1.37649        -0.63585
   C       14.11394        -1.43731        -0.21483
   C       13.24531        -0.40422        -0.02212
   C       11.93966        -0.61269         0.47458
   N       10.89512        -0.78485         0.91472
   C       13.60791         0.93877        -0.26149
   N       13.90116         2.03006        -0.45283
   C       16.43592        -0.42666        -1.02020
   C       17.67982        -0.98863        -1.32074
   S       17.68149        -2.73625        -1.11030
   C       18.76899        -0.19777        -1.73830
   C       20.03764        -0.55700        -2.09029
   C       21.08988         0.36271        -2.51418
   C       21.05911         1.72812        -2.62495
   C       22.20117         2.43705        -3.05710
   N       23.12782         3.01521        -3.40720
   C       19.95823         2.55814        -2.33828
   N       19.09826         3.28681        -2.12035
   C       22.23321        -0.45744        -2.80787
   C       21.96068        -1.80225        -2.58978
   C       23.05622        -2.63659        -2.86634
   C       24.12901        -1.90631        -3.28582
   S       23.83679        -0.20573        -3.35345
   C       20.57876        -1.93390        -2.12578
   O       19.98905        -2.95716        -1.82983
   H       -3.51240        -1.23149         0.62549
   H       -3.27814         0.55707        -1.28189
   H        0.68602        -4.75528         1.70820
   H        3.22384        -2.34781         0.08732
   H        9.15600        -4.04653         0.13760
   H        9.45561        -8.52908         1.64199
   H       13.63951        -7.63095         1.01085
   H       11.78136        -3.30613         0.59180
   H       16.24987         0.63043        -1.09261
   H       18.52996         0.85869        -1.78082
   H       23.05132        -3.70563        -2.76212
   H       25.09784        -2.27109        -3.56613
*
