# ORCA input file
# SCF done       -195.738342606230          0.001999620238
! CAM-B3LYP def2-SVP def2/J RIJCOSX Grid4 TightSCF
%maxcore 5000
%tddft
    Mode sTDDFT
    Ethresh 5.0
    maxcore 5000
end

%pal
  nprocs 6
  end
* xyz 0 1
   C       12.60479         7.09283        -2.79923
   C       12.53341         7.85297        -1.66919
   S       11.39443         7.27545        -0.50712
   C       11.00509         5.96518        -1.53790
   C       11.72267         6.00176        -2.72818
   C       11.31033         4.87271        -3.57254
   O       11.65708         4.59231        -4.69403
   C       10.38070         4.07833        -2.70316
   C       10.06695         4.87593        -1.52580
   C        8.96413         4.79687        -0.71419
   C        8.77063         5.71213         0.34157
   N        8.61698         6.44348         1.21205
   C        7.90320         3.89154        -0.90620
   N        7.00729         3.19043        -1.06166
   C       10.07588         2.79952        -3.03733
   C        9.58507         1.75632        -2.21128
   C        8.91208         0.62200        -2.63522
   C        8.59745        -0.22840        -1.57997
   C        9.08006         0.23956        -0.34001
   S        9.89530         1.72606        -0.47684
   C        8.71225        -0.67378         0.67305
   C        7.98177        -1.72283         0.07488
   C        7.89593        -1.48175        -1.35774
   C        7.28654        -2.26743        -2.29074
   C        7.27949        -1.93700        -3.66292
   N        7.27932        -1.68026        -4.78024
   C        6.63424        -3.47134        -1.94825
   N        6.10652        -4.45163        -1.67485
   C        7.54035        -2.66044         0.99652
   C        7.92978        -2.33978         2.29335
   S        8.86865        -0.85974         2.36368
   C        7.61086        -3.05526         3.47769
   C        8.08836        -2.64373         4.74162
   C        7.73220        -3.31488         5.95628
   N        8.22221        -2.86102         7.12682
   C        9.00685        -1.83261         7.14124
   C        9.36192        -1.16931         5.93702
   N        8.90764        -1.57510         4.79579
   F       10.17279        -0.11768         5.94706
   F        9.47064        -1.41876         8.31441
   C        6.87085        -4.43385         5.98186
   C        6.41544        -4.87483         4.71602
   C        6.78094        -4.20208         3.48930
   N        6.23025        -4.79369         2.42801
   S        5.35783        -6.04890         2.90475
   N        5.61984        -5.91901         4.47899
   C        6.48082        -5.04448         7.20333
   C        5.59782        -6.10903         7.35609
   C        5.40511        -6.43773         8.68991
   C        6.15526        -5.62207         9.56438
   S        7.08806        -4.45208         8.73846
   C        5.87984        -6.02398        10.89004
   C        4.94531        -7.08641        10.86298
   C        4.63559        -7.39196         9.47510
   C        3.81878        -8.37366         8.99817
   C        3.60915        -8.56087         7.61437
   N        3.43682        -8.71403         6.49125
   C        3.14326        -9.28952         9.83458
   N        2.59738       -10.05888        10.48531
   C        4.57964        -7.52351        12.12904
   C        5.23176        -6.81884        13.13349
   S        6.32782        -5.59716        12.47129
   C        5.21713        -6.92162        14.54148
   C        4.38911        -7.60305        15.38413
   C        4.57382        -7.63297        16.83360
   C        5.62793        -7.17623        17.58351
   C        5.61615        -7.31096        18.98860
   N        5.60891        -7.41967        20.13074
   C        6.80232        -6.57206        17.09596
   N        7.78813        -6.08498        16.76490
   C        3.42163        -8.29971        17.37066
   C        2.56177        -8.71092        16.36245
   C        1.42219        -9.37233        16.84839
   C        1.44705        -9.44732        18.21008
   S        2.84233        -8.72553        18.92667
   C        3.11553        -8.31575        15.06106
   O        2.61820        -8.49893        13.97248
   H       13.24700         7.30418        -3.63346
   H       13.08610         8.74441        -1.44494
   H       10.30497         2.51935        -4.06144
   H        8.64090         0.46218        -3.66309
   H        6.95902        -3.53709         0.77829
   H        5.13629        -6.58907         6.51310
   H        3.87064        -8.30443        12.33679
   H        6.00007        -6.33952        15.01424
   H        0.63759        -9.76823        16.23105
   H        0.71533        -9.89541        18.85375
*
