# ORCA input file
# SCF done       -177.076478384922          0.000846836384
! CAM-B3LYP def2-SVP def2/J RIJCOSX Grid4 TightSCF
%maxcore 5000
%tddft
    Mode sTDDFT
    Ethresh 5.0
    maxcore 5000
end

%pal
  nprocs 6
  end
* xyz 0 1
   C        6.16788         5.17628        -4.54355
   C        7.00861         4.90413        -5.58213
   S        7.45280         3.23963        -5.70613
   C        6.51287         2.88434        -4.32013
   C        5.87853         4.01204        -3.81217
   C        5.06785         3.62425        -2.64949
   O        4.33263         4.30253        -1.97298
   C        5.39945         2.17793        -2.43122
   C        6.14249         1.70308        -3.58799
   C        6.24948         0.41859        -4.05709
   C        6.94827         0.13440        -5.24784
   N        7.53163        -0.10191        -6.20702
   C        5.60588        -0.68697        -3.46964
   N        5.05393        -1.59624        -3.03772
   C        5.10664         1.60272        -1.23680
   C        5.66516         0.45944        -0.61683
   C        5.13855        -0.19884         0.48408
   C        5.96594        -1.22114         0.93649
   C        7.15687        -1.32722         0.19032
   S        7.24433        -0.18460        -1.06570
   C        7.95098        -2.35780         0.74824
   C        7.26794        -2.90327         1.84928
   C        5.99338        -2.21641         1.99621
   C        5.03291        -2.45426         2.93399
   C        3.83448        -1.71030         2.98521
   N        2.86174        -1.10622         3.03965
   C        5.17147        -3.45454         3.92035
   N        5.27426        -4.26046         4.72916
   C        7.98979        -3.90537         2.49456
   C        9.21307        -4.13703         1.89285
   S        9.46651        -3.09857         0.49528
   C       10.23852        -5.04942         2.30048
   C       11.33713        -5.32835         1.49929
   C       12.37951        -6.15950         1.89560
   C       12.41380        -6.76594         3.14415
   C       11.29806        -6.52598         3.99517
   C       10.20333        -5.68528         3.57667
   N        9.24438        -5.56302         4.48434
  Se        9.64803        -6.49344         5.90478
   N       11.16066        -7.03475         5.21118
   C       13.51564        -7.56125         3.59495
   C       14.59568        -8.00496         2.84877
   C       15.52085        -8.69529         3.62749
   C       15.14330        -8.77047         4.98164
   S       13.63609        -8.02483         5.28032
   C       16.16184        -9.44348         5.70201
   C       17.18223        -9.80206         4.78990
   C       16.80598        -9.35234         3.45845
   C       17.50950        -9.50371         2.29978
   C       17.03515        -9.00349         1.06916
   N       16.64626        -8.59217         0.07176
   C       18.75573       -10.16375         2.25332
   N       19.76745       -10.70065         2.20565
   C       18.24127       -10.43672         5.41203
   C       18.05602       -10.55740         6.79322
   S       16.51442        -9.87594         7.31003
   C       19.03029       -11.13944         7.62366
   C       19.06155       -11.29228         8.98168
   C       20.15909       -11.88708         9.73566
   C       21.33101       -12.43659         9.28371
   C       22.27262       -12.96301        10.19393
   N       23.04273       -13.38943        10.92958
   C       21.73019       -12.54885         7.93828
   N       22.11540       -12.66630         6.86297
   C       19.78151       -11.79339        11.12021
   C       18.53614       -11.19697        11.26474
   C       18.13373       -11.08392        12.60582
   C       19.08126       -11.59608        13.44245
   S       20.47003       -12.22195        12.62869
   C       18.01780       -10.86105         9.93572
   O       16.95234       -10.33567         9.66801
   H        5.77677         6.15090        -4.31800
   H        7.39695         5.59280        -6.30689
   H        4.39926         2.15523        -0.62470
   H        4.18522         0.05998         0.90846
   H        7.66717        -4.44913         3.36252
   H       11.39104        -4.87186         0.52137
   H       13.19812        -6.31193         1.21075
   H       14.69704        -7.83794         1.79252
   H       19.12632       -10.79803         4.91859
   H       19.89133       -11.50121         7.07332
   H       17.20516       -10.65253        12.93056
   H       19.04932       -11.64641        14.51333
*
