# ORCA input file
# SCF done       -205.367342224068          0.000703201675
! CAM-B3LYP def2-SVP def2/J RIJCOSX Grid4 TightSCF
%maxcore 5000
%tddft
    Mode sTDDFT
    Ethresh 5.0
    maxcore 5000
end

%pal
  nprocs 6
  end
* xyz 0 1
   C        0.67415         3.85080        -4.46064
   C       -0.56944         3.61900        -3.93857
   C       -0.78195         2.53962        -3.06807
   C        0.25112         1.70799        -2.73069
   C        1.54417         1.91580        -3.25194
   C        2.61201         1.05097        -2.91713
   C        3.85215         1.27631        -3.45032
   C        4.06403         2.38583        -4.31989
   C        3.05110         3.23459        -4.66261
   C        1.75907         3.01287        -4.13564
   C        5.47810         2.42284        -4.72314
   O        6.02107         3.18264        -5.49174
   C        6.14218         1.33741        -3.93676
   C        5.10517         0.53771        -3.32213
   C        5.20988        -0.76743        -2.91595
   C        6.38828        -1.52542        -3.03947
   N        7.33905        -2.16125        -3.14022
   C        4.13520        -1.52321        -2.40414
   N        3.30006        -2.18613        -1.97983
   C        7.50138         1.33538        -3.88541
   C        8.39759         0.69194        -2.99974
   C        8.20513         0.21143        -1.71156
   F        7.04025         0.32407        -1.06547
   C        9.35554        -0.32374        -1.13229
   C       10.46181        -0.25988        -1.99243
   S       10.07112         0.49504        -3.48704
   C       11.60861        -0.81458        -1.42064
   C       11.35830        -1.29982        -0.13344
   S        9.71330        -1.07544         0.39398
   C       12.49561        -1.86033         0.45440
   F       12.44850        -2.43421         1.65625
   C       13.62123        -1.81008        -0.35796
   S       13.24332        -1.10205        -1.91745
   C       14.95572        -2.24145        -0.09907
   C       15.87673        -2.31519        -1.16982
   C       17.20921        -2.80955        -1.00820
   N       18.03426        -2.83975        -2.06730
   C       17.61342        -2.41772        -3.22576
   C       16.29871        -1.93282        -3.38653
   N       15.47365        -1.89298        -2.37905
   C       17.70232        -3.26750         0.23560
   C       16.83914        -3.06594         1.33196
   C       15.48671        -2.55972         1.16796
   N       14.89112        -2.38477         2.34722
   S       15.89084        -2.80663         3.51945
   N       17.14242        -3.22626         2.61979
   C       19.01120        -3.82889         0.30620
   C       19.60429        -4.56987         1.32158
   F       18.97925        -4.97941         2.42575
   C       20.92688        -4.92528         1.04975
   C       21.36229        -4.45324        -0.19373
   S       20.10596        -3.62048        -1.04572
   C       22.68443        -4.81618        -0.46145
   C       23.24048        -5.55891         0.59606
   S       22.13887        -5.82351         1.92159
   C       24.55274        -5.91526         0.33133
   F       25.31624        -6.62485         1.16401
   C       25.03171        -5.46218        -0.90509
   S       23.79166        -4.55595        -1.75803
   C       26.33999        -5.75169        -1.33300
   C       26.98492        -5.37563        -2.47961
   C       28.34741        -5.71462        -2.85344
   C       29.20573        -6.55440        -2.19403
   C       30.51696        -6.84221        -2.62962
   N       31.59102        -7.11930        -2.92524
   C       28.92231        -7.26967        -1.01077
   N       28.77879        -7.89563        -0.05896
   C       28.64582        -5.01533        -4.10020
   C       27.48450        -4.29880        -4.50926
   C       27.45838        -3.54906        -5.64987
   C       28.61998        -3.47536        -6.45022
   C       28.65609        -2.71686        -7.63668
   C       29.79505        -2.65604        -8.39317
   C       30.94672        -3.35162        -7.99635
   C       30.94403        -4.09881        -6.84975
   C       29.78862        -4.18356        -6.04688
   C       29.78286        -4.95485        -4.86133
   C       26.41596        -4.51364        -3.52567
   O       25.28599        -4.05737        -3.57049
   H        0.84425         4.68002        -5.13173
   H       -1.39571         4.26558        -4.19363
   H       -1.76955         2.36970        -2.66613
   H        0.09143         0.87415        -2.06300
   H        2.42361         0.23468        -2.23752
   H        3.23265         4.06430        -5.32957
   H        7.97506         1.98268        -4.61903
   H       18.31610        -2.45476        -4.04525
   H       15.92944        -1.57664        -4.33703
   H       26.89330        -6.35682        -0.62319
   H       26.56268        -3.01828        -5.93654
   H       27.76612        -2.18322        -7.93675
   H       29.81476        -2.07157        -9.30080
   H       31.83709        -3.29271        -8.60413
   H       31.82820        -4.63677        -6.54086
   H       30.68510        -5.47674        -4.58556
*
