# ORCA input file
# SCF done       -246.247746428603          0.000927068690
! CAM-B3LYP def2-SVP def2/J RIJCOSX Grid4 TightSCF
%maxcore 5000
%tddft
    Mode sTDDFT
    Ethresh 5.0
    maxcore 5000
end

%pal
  nprocs 6
  end
* xyz 0 1
   C       -1.11046         0.92047        -1.26167
   C       -1.63855         1.30639        -2.46380
   C       -0.80255         1.78302        -3.48465
   C        0.54929         1.86769        -3.28996
   C        1.12661         1.48117        -2.06351
   C        2.52169         1.57660        -1.85381
   C        3.04675         1.19504        -0.64886
   C        2.19461         0.68658         0.37514
   C        0.84358         0.59149         0.20227
   C        0.27689         0.99431        -1.02784
   C        3.00978         0.29825         1.53678
   O        2.64157        -0.11849         2.61020
   C        4.42865         0.46422         1.09266
   C        4.41794         1.20980        -0.14964
   C        5.42249         2.00186        -0.64159
   C        6.67235         2.16548        -0.01439
   N        7.69293         2.34095         0.48187
   C        5.28659         2.81882        -1.78423
   N        5.22565         3.50474        -2.70180
   C        5.40495        -0.14662         1.81542
   C        6.72894        -0.46776         1.43584
   C        7.27462        -0.55747         0.16353
   C        8.60928        -0.94101         0.19344
   C        9.09051        -1.16029         1.50040
   S        7.89331        -0.90185         2.68038
   C       10.45377        -1.54352         1.42742
   C       10.83021        -1.55361         0.06524
   C        9.68828        -1.16957        -0.75021
   C        9.63368        -1.03697        -2.10619
   C       10.74942        -1.29985        -2.92885
   N       11.65329        -1.53240        -3.59427
   C        8.44646        -0.64105        -2.75797
   N        7.47057        -0.32588        -3.27095
   C       12.14854        -1.93070        -0.10978
   C       12.78375        -2.22779         1.09895
   S       11.71031        -2.00913         2.47884
   C       14.11995        -2.68231         1.16934
   C       14.91006        -3.13601         2.22764
   C       14.48021        -3.13913         3.60387
   O       13.38745        -2.73991         3.98736
   C       15.48143        -3.65211         4.55400
   C       16.75637        -4.11985         4.14196
   C       17.51434        -4.54486         5.20840
   S       16.69998        -4.38258         6.71153
   C       15.31988        -3.73984         5.91746
   C       14.12119        -3.34992         6.72668
   F       13.82886        -2.05097         6.62623
   F       13.02719        -4.04163         6.39571
   F       14.33685        -3.58858         8.03317
   C       18.90496        -5.10075         5.18233
   F       18.99093        -6.24825         4.50466
   F       19.79167        -4.24975         4.65955
   F       19.32900        -5.36810         6.43110
   C       17.17301        -4.14355         2.72906
   O       18.25235        -4.61272         2.39241
   C       16.20354        -3.59155         1.81354
   C       16.42560        -3.44820         0.44344
   S       15.01458        -2.76731        -0.32778
   C       17.53365        -3.74101        -0.38440
   C       17.59689        -3.35801        -1.72602
   C       18.75155        -3.79974        -2.34562
   C       19.57307        -4.55120        -1.47511
   S       18.95221        -4.66164         0.10753
   C       20.70966        -4.98789        -2.20194
   C       20.60330        -4.50438        -3.52797
   C       19.37655        -3.73536        -3.65716
   C       18.90809        -3.08965        -4.76269
   C       19.59699        -3.10508        -5.99415
   N       20.14998        -3.12455        -6.99803
   C       17.70037        -2.35971        -4.73971
   N       16.72328        -1.76081        -4.71331
   C       21.66987        -4.89708        -4.31506
   C       22.57936        -5.70061        -3.61837
   S       22.09227        -5.94781        -1.94397
   C       23.73226        -6.21573        -4.24013
   C       24.67176        -7.09144        -3.76893
   C       25.82318        -7.58869        -4.50421
   C       26.31197        -7.11378        -5.69245
   C       27.44896        -7.63911        -6.34290
   N       28.36389        -8.02067        -6.92147
   C       25.78448        -6.02507        -6.41877
   N       25.42182        -5.14239        -7.05736
   C       26.41273        -8.66641        -3.71687
   C       25.69791        -8.77541        -2.48888
   C       26.02553        -9.69972        -1.53891
   C       27.10174       -10.58205        -1.78160
   C       27.48446       -11.55956        -0.84236
   C       28.52568       -12.40910        -1.10248
   C       29.22953       -12.31727        -2.31235
   C       28.88381       -11.37747        -3.24535
   C       27.81714       -10.48664        -3.01034
   C       27.45728        -9.51447        -3.97242
   C       24.62107        -7.77865        -2.46927
   O       23.83148        -7.57598        -1.56246
   H       -1.74912         0.55205        -0.47225
   H       -2.70292         1.24589        -2.63472
   H       -1.23553         2.08353        -4.42690
   H        1.19671         2.23683        -4.07158
   H        3.14426         1.93623        -2.65811
   H        0.21431         0.21148         0.99328
   H        5.09296        -0.49491         2.79577
   H        6.70551        -0.39498        -0.73337
   H       12.64557        -2.00661        -1.06115
   H       16.82442        -2.77917        -2.20137
   H       21.80798        -4.63755        -5.34986
   H       23.85169        -5.86686        -5.25922
   H       25.46900        -9.75830        -0.61534
   H       26.93838       -11.62565         0.08722
   H       28.81196       -13.15640        -0.37775
   H       30.04805       -12.99523        -2.50202
   H       29.42369       -11.30239        -4.17778
   H       28.01696        -9.47171        -4.89308
*
