# ORCA input file
# SCF done       -185.849130029234          0.000491070686
! CAM-B3LYP def2-SVP def2/J RIJCOSX Grid4 TightSCF
%maxcore 5000
%tddft
    Mode sTDDFT
    Ethresh 5.0
    maxcore 5000
end

%pal
  nprocs 6
  end
* xyz 0 1
   C        7.75342       -10.43631        -0.96865
   C        7.15051       -11.65266        -0.93864
   O        6.20111       -11.69173         0.01346
   C        6.19836       -10.50530         0.61915
   C        7.12618        -9.66620         0.05518
   C        7.40887        -8.29729         0.51166
   O        7.21085        -7.94961         1.66219
   C        7.93725        -7.36766        -0.48154
   C        7.88435        -7.39718        -1.85750
   C        8.44381        -6.26659        -2.45045
   C        8.93010        -5.35813        -1.52921
   S        8.66932        -5.90577         0.09600
   C        9.57089        -4.11775        -1.79453
   C       10.06594        -3.20945        -0.87819
   C       10.63762        -2.09891        -1.49925
   C       10.57430        -2.16285        -2.90360
   S        9.81380        -3.58883        -3.45380
   C       11.17840        -1.00355        -3.44665
   C       11.62864        -0.20233        -2.37727
   C       11.30167        -0.86127        -1.12246
   C       11.56286        -0.41168         0.13827
   C       11.19702        -1.14267         1.28846
   N       10.90235        -1.73121         2.22730
   C       12.21702         0.81505         0.38066
   N       12.74742         1.80945         0.59181
   C       12.24862         0.96416        -2.80355
   C       12.27494         1.06503        -4.18945
   S       11.51370        -0.31005        -4.97241
   C       12.84004         2.11934        -4.95522
   C       12.78798         2.12240        -6.36536
   C       13.36143         3.17229        -7.15751
   N       13.26849         3.10883        -8.49993
   C       12.66919         2.10609        -9.05663
   C       12.10583         1.06643        -8.27414
   N       12.17334         1.09359        -6.98227
   F       11.49145         0.03325        -8.84460
   F       12.59778         2.08130       -10.38502
   C       14.03261         4.27522        -6.58546
   C       14.08237         4.28392        -5.17002
   C       13.49567         3.23074        -4.37191
   N       13.66457         3.45624        -3.06846
   S       14.46418         4.82953        -2.86026
   N       14.64472         5.21932        -4.40370
   C       14.61933         5.29016        -7.38560
   C       15.35856         6.38031        -6.94030
   C       15.79941         7.17487        -7.98900
   C       15.38612         6.69472        -9.24914
   S       14.47091         5.25817        -9.13606
   C       15.89012         7.57250       -10.24243
   C       16.61983         8.59586        -9.61623
   C       16.58594         8.38447        -8.18037
   C       17.16857         9.15850        -7.21993
   C       17.07375         8.85353        -5.84564
   N       17.00418         8.61545        -4.72595
   C       17.89353        10.32705        -7.53685
   N       18.46859        11.28770        -7.78535
   C       17.16984         9.50661       -10.52356
   C       16.86153         9.18375       -11.82360
   S       15.87215         7.74283       -11.94252
   C       17.25554         9.88886       -13.01089
   C       16.59917         9.95880       -14.21207
   O       17.25979        10.74655       -15.07178
   C       18.34834        11.20427       -14.44123
   C       18.41664        10.72157       -13.16467
   C       19.53289        10.86013       -12.20121
   O       19.98642         9.89668       -11.61306
   C       20.05225        12.20367       -12.01838
   C       19.55559        13.41485       -12.44201
   C       20.33714        14.49758       -12.01595
   C       21.41235        14.10174       -11.27287
   S       21.48930        12.40946       -11.06722
   H        8.56186       -10.13432        -1.60134
   H        7.30106       -12.54046        -1.52013
   H        5.49935       -10.33820         1.41430
   H        7.42954        -8.19644        -2.41377
   H        8.49760        -6.10466        -3.51281
   H       10.00452        -3.36713         0.18358
   H       12.67128         1.72208        -2.17043
   H       15.54746         6.55165        -5.89673
   H       17.75878        10.36220       -10.25098
   H       15.68449         9.50857       -14.54346
   H       19.02019        11.82710       -14.99831
   H       18.65561        13.51633       -13.02081
   H       20.11587        15.52454       -12.24483
   H       22.16504        14.72406       -10.83000
*
