# ORCA input file
# SCF done       -227.120086214337          0.000552275320
! CAM-B3LYP def2-SVP def2/J RIJCOSX Grid4 TightSCF
%maxcore 5000
%tddft
    Mode sTDDFT
    Ethresh 5.0
    maxcore 5000
end

%pal
  nprocs 6
  end
* xyz 0 1
   C        4.59343        -0.89397        -2.67014
   C        5.90250        -1.28009        -2.62277
   F        6.87861        -0.37013        -2.75526
   C        6.24760        -2.63519        -2.44762
   F        7.54069        -2.98175        -2.44888
   C        5.27815        -3.58417        -2.28468
   C        3.91933        -3.21387        -2.30614
   C        3.56911        -1.85122        -2.53083
   C        2.21145        -1.46774        -2.61815
   C        1.23525        -2.41169        -2.44109
   C        1.59519        -3.75583        -2.14047
   C        2.89753        -4.16511        -2.09213
   C        0.36970        -4.53658        -1.91300
   O        0.30614        -5.70739        -1.56651
   C       -0.75136        -3.63428        -2.18257
   C       -0.22067        -2.32459        -2.51851
   C       -0.92159        -1.19834        -2.85812
   C       -2.31800        -1.13059        -3.04832
   N       -3.44315        -1.00918        -3.24295
   C       -0.33223         0.07163        -3.05113
   N        0.07543         1.13716        -3.16855
   C       -2.07753        -3.98386        -2.14018
   C       -2.69037        -5.18626        -1.75993
   C       -4.07663        -5.36153        -1.84820
   C       -4.48367        -6.60232        -1.40035
   C       -3.40214        -7.39270        -0.94461
   S       -1.89427        -6.61601        -1.09559
   C       -3.92033        -8.65463        -0.55242
   C       -5.31295        -8.65373        -0.73758
   C       -5.71380        -7.37292        -1.28793
   C       -6.96141        -6.99996        -1.69128
   C       -8.07468        -7.85900        -1.57670
   N       -8.97969        -8.55836        -1.49900
   C       -7.21362        -5.74506        -2.28579
   N       -7.42024        -4.73346        -2.78345
   C       -5.90034        -9.89021        -0.44628
   C       -4.96226       -10.82726        -0.08152
   S       -3.33975       -10.17081        -0.01572
   C       -5.17477       -12.24607         0.07273
   C       -4.61259       -13.08388         0.99830
   O       -5.04702       -14.33897         0.83513
   C       -5.89622       -14.34133        -0.19141
   C       -6.02088       -13.08962        -0.73402
   C       -6.86905       -12.76767        -1.90111
   O       -7.92161       -13.33224        -2.10346
   C       -6.37774       -11.69209        -2.77541
   C       -7.15164       -10.73671        -3.39100
   C       -6.40069        -9.70501        -3.96161
   C       -5.04176        -9.87807        -3.80601
   S       -4.69100       -11.38325        -3.00933
   C       -3.98363        -8.97211        -4.08809
   C       -2.65846        -9.13184        -3.72797
   C       -1.89469        -8.00965        -4.03925
   C       -2.64449        -6.98759        -4.64777
   S       -4.29258        -7.41132        -4.82795
   C       -1.78100        -5.89741        -4.92420
   C       -0.48130        -6.24600        -4.50020
   C       -0.51780        -7.56419        -3.89613
   C        0.50135        -8.20479        -3.25808
   C        1.79384        -7.64696        -3.18101
   N        2.84653        -7.19464        -3.13715
   C        0.30221        -9.43708        -2.60070
   N        0.11602       -10.42639        -2.05237
   C        0.45465        -5.25454        -4.74656
   C       -0.10830        -4.13865        -5.35388
   S       -1.84486        -4.33125        -5.58686
   C        0.50554        -2.92862        -5.73042
   C        1.82779        -2.63039        -5.88588
   C        2.21708        -1.19096        -5.90993
   O        1.45967        -0.24922        -5.93627
   C        3.68855        -1.17770        -5.83815
   C        4.53711        -0.10855        -5.80417
   C        5.92910        -0.33693        -5.72667
   C        6.41397        -1.67638        -5.66168
   C        7.80122        -1.89968        -5.55530
   C        8.66756        -0.84274        -5.52315
   C        8.18753         0.48101        -5.59752
   C        6.84712         0.73007        -5.69678
   F        9.05885         1.49487        -5.57496
   F        9.98347        -1.05491        -5.43063
   C        5.51111        -2.76347        -5.71339
   C        4.16833        -2.51845        -5.82062
   C        3.03276        -3.42116        -6.00269
   C        3.13929        -4.70059        -6.48634
   C        2.05450        -5.45439        -6.97309
   N        1.20375        -6.08998        -7.40997
   C        4.36456        -5.38011        -6.65284
   N        5.32847        -5.98591        -6.79479
   H        4.34490         0.14603        -2.81066
   H        5.55376        -4.61696        -2.13977
   H        1.97977        -0.43546        -2.82333
   H        3.14483        -5.19858        -1.90022
   H       -2.79277        -3.22818        -2.44178
   H       -4.72562        -4.59518        -2.23375
   H       -6.95105       -10.10661        -0.51031
   H       -3.92761       -12.88780         1.79947
   H       -6.34097       -15.27138        -0.48568
   H       -8.22606       -10.76201        -3.36436
   H       -6.82783        -8.84508        -4.44731
   H       -2.28777       -10.02385        -3.25598
   H        1.49094        -5.31337        -4.46940
   H       -0.15978        -2.07984        -5.86668
   H        4.15041         0.89851        -5.84311
   H        8.18572        -2.90600        -5.49633
   H        6.49618         1.74877        -5.74619
   H        5.90702        -3.76533        -5.66775
*
