# ORCA input file
# SCF done       -214.177008410127          0.000462921231
! CAM-B3LYP def2-SVP def2/J RIJCOSX Grid4 TightSCF
%maxcore 5000
%tddft
    Mode sTDDFT
    Ethresh 5.0
    maxcore 5000
end

%pal
  nprocs 6
  end
* xyz 0 1
   C        3.71774        -1.69597        -0.27475
   O        3.00385        -2.16807        -1.13171
   C        4.61512        -0.53530        -0.45200
   C        5.27913        -0.25626         0.75351
   C        6.16950         0.80401         0.81157
   C        6.38006         1.56090        -0.33546
   C        5.71608         1.27156        -1.53004
   C        4.82084         0.21197        -1.59286
  Br        6.02622         2.31657        -3.07281
  Br        7.59449         3.00721        -0.25432
   C        4.85496        -1.22778         1.75995
   C        5.35291        -1.29498         3.03478
   C        6.31958        -0.40413         3.55208
   N        7.09881         0.28504         4.03610
   C        5.01533        -2.24817         4.02020
   N        4.81560        -2.98505         4.87819
   C        3.87193        -2.10404         1.14048
   C        3.19814        -3.08700         1.81803
   C        2.27871        -4.06119         1.38991
   C        1.78157        -4.41821         0.13867
   C        0.92142        -5.50149         0.20790
   C        0.74200        -5.99053         1.52714
   S        1.63804        -5.11042         2.66852
   C       -0.12944        -7.10006         1.48807
   C       -0.50307        -7.32158         0.14386
   C        0.13801        -6.32454        -0.69979
   C        0.02674        -6.20653        -2.05303
   C       -0.77537        -7.08637        -2.81288
   N       -1.42392        -7.79719        -3.43602
   C        0.69919        -5.21634        -2.80326
   N        1.23411        -4.43128        -3.44381
   C       -1.33894        -8.41735        -0.00563
   C       -1.61026        -9.03629         1.21096
   S       -0.82679        -8.23645         2.56007
   C       -2.39324       -10.20510         1.40719
   C       -2.61638       -10.74070         2.69488
   C       -3.36044       -11.94567         2.90983
   N       -3.53004       -12.40012         4.16728
   C       -3.02380       -11.74524         5.16136
   C       -2.28487       -10.55042         4.94821
   N       -2.10010       -10.08699         3.75473
   F       -1.76383        -9.87726         5.96588
   F       -3.21422       -12.22358         6.38437
   C       -3.91793       -12.69382         1.84915
   C       -3.72355       -12.14905         0.55714
   C       -2.98076       -10.92773         0.34110
   N       -2.92885       -10.61422        -0.95473
   S       -3.71944       -11.71420        -1.80715
   N       -4.17071       -12.65518        -0.59362
   C       -4.60461       -13.91536         2.07892
   C       -5.13525       -14.76163         1.10993
   C       -5.71234       -15.89172         1.66774
   C       -5.63372       -15.90704         3.07887
   S       -4.83781       -14.53016         3.70505
   C       -6.24158       -17.09561         3.54367
   C       -6.69277       -17.83804         2.42802
   C       -6.38780       -17.09677         1.21693
   C       -6.70386       -17.45318        -0.06112
   C       -7.39018       -18.65584        -0.33309
   N       -7.94479       -19.64039        -0.52781
   C       -6.36756       -16.65133        -1.17233
   N       -6.08694       -16.00606        -2.07724
   C       -7.31566       -19.02372         2.78165
   C       -7.36550       -19.20112         4.16011
   S       -6.58217       -17.87530         5.01620
   C       -7.88805       -20.27978         4.89963
   C       -8.73086       -21.27607         4.50027
   C       -8.78797       -22.51952         5.31889
   O       -8.33463       -22.67884         6.42669
   C       -9.46355       -23.51416         4.45874
   C       -9.89586       -22.89148         3.27333
   C       -9.58654       -21.46308         3.34812
   C      -10.22091       -20.49232         2.61851
   C      -10.09404       -19.11201         2.87027
   N      -10.03585       -17.98153         3.06050
   C      -11.15337       -20.76411         1.59371
   N      -11.92054       -20.93566         0.75880
   C      -10.51595       -23.63898         2.28747
   C      -10.70821       -24.99868         2.50788
   C      -10.29582       -25.60547         3.69694
   C       -9.66339       -24.86027         4.68418
  Br      -10.58412       -27.45149         3.97712
  Br      -11.54132       -26.02620         1.15916
   H        6.70089         1.06221         1.71279
   H        4.29880        -0.02540        -2.50690
   H        3.40182        -3.14756         2.88057
   H        2.05216        -3.89223        -0.75970
   H       -1.74451        -8.78182        -0.93118
   H       -5.08001       -14.53299         0.06158
   H       -7.67497       -19.75656         2.08285
   H       -7.51996       -20.38439         5.91610
   H      -10.83895       -23.20325         1.35559
   H       -9.33575       -25.32075         5.60326
*
