# ORCA input file
# SCF done       -210.614059182243          0.000698347480
! CAM-B3LYP def2-SVP def2/J RIJCOSX Grid4 TightSCF
%maxcore 5000
%tddft
    Mode sTDDFT
    Ethresh 5.0
    maxcore 5000
end

%pal
  nprocs 6
  end
* xyz 0 1
   C       -1.12977         0.58060         1.11038
   C       -0.01113         1.32730         0.84251
   C        1.24907         1.08799         1.42916
   N        2.29681         0.92847         1.86908
   C        0.03150         2.35610        -0.11742
   N        0.10970         3.18931        -0.90381
   C       -1.15239        -0.62445         1.93308
   C       -2.30134        -1.39236         1.58257
   C       -2.56980        -2.59158         2.17699
   C       -1.69478        -3.07639         3.17549
   C       -0.55617        -2.30265         3.54412
   C       -0.29701        -1.06848         2.90427
   C        0.30019        -2.79150         4.55120
   C        0.04798        -3.98862         5.16428
   C       -1.07184        -4.75075         4.79958
   C       -1.92413        -4.30476         3.82604
   C       -3.07849        -0.66523         0.56462
   O       -4.07783        -1.02287        -0.01562
   C       -2.40853         0.66331         0.43797
   C       -3.09237         1.68460        -0.14983
   C       -2.87727         3.07368        -0.02808
   C       -2.15360         3.76001         0.93852
   C       -2.21931         5.13421         0.76733
   C       -3.00847         5.51693        -0.34052
   S       -3.67007         4.17443        -1.15124
   C       -3.02011         6.92820        -0.42001
   C       -2.23265         7.43830         0.63611
   C       -1.69441         6.32816         1.40423
   C       -0.86161         6.38348         2.48338
   C       -0.40979         7.60420         3.02704
   N       -0.04071         8.59003         3.48154
   C       -0.41218         5.20957         3.12422
   N       -0.06274         4.24698         3.64057
   C       -2.20428         8.82357         0.67019
   C       -2.96775         9.38726        -0.34654
   S       -3.71457         8.16699        -1.37024
   C       -3.22170        10.76277        -0.59007
   C       -2.71309        11.82254         0.20923
   C       -3.09198        13.18176        -0.03964
   N       -2.62015        14.16445         0.74816
   C       -1.81103        13.87104         1.72684
   C       -1.42642        12.53614         1.96226
   N       -1.87077        11.55632         1.22583
   C       -3.96851        13.56881        -1.08323
   C       -4.42737        12.52443        -1.91296
   C       -4.05712        11.15457        -1.65790
   N       -4.61201        10.32231        -2.54176
   S       -5.49518        11.16670        -3.58369
   N       -5.23281        12.62238        -2.97282
   C       -4.36722        14.92046        -1.22803
   C       -5.22986        15.43608        -2.19006
   C       -5.45617        16.79188        -2.00830
   C       -4.75795        17.31683        -0.89871
   S       -3.81095        16.13479        -0.09319
   C       -5.08691        18.68404        -0.77966
   C       -5.99625        19.03064        -1.80882
   C       -6.23386        17.85403        -2.62848
   C       -7.00306        17.76004        -3.75020
   C       -7.68073        18.86296        -4.31454
   N       -8.22371        19.74189        -4.81092
   C       -7.15783        16.54427        -4.45075
   N       -7.29520        15.56099        -5.02454
   C       -6.42824        20.34627        -1.73790
   C       -5.86202        21.02714        -0.66559
   S       -4.74579        19.99560         0.24508
   C       -5.98549        22.35340        -0.20826
   C       -6.89938        23.32181        -0.52440
   C       -6.84820        24.68183        -0.01440
   C       -5.78380        25.28875         0.60270
   C       -5.79566        26.62182         1.06421
   N       -5.73890        27.69398         1.47105
   C       -4.52284        24.70316         0.84038
   N       -3.46437        24.31049         1.05362
   C       -8.11162        25.33169        -0.34086
   C       -8.90152        24.42339        -1.09969
   C       -8.17572        23.15344        -1.26552
   O       -8.58441        22.17049        -1.84704
   C      -10.14221        24.75371        -1.56274
   C      -10.66263        26.03601        -1.27887
   C       -9.88315        26.94911        -0.51149
   C       -8.60016        26.57751        -0.04749
   C      -10.41494        28.22360        -0.22832
   C      -11.65523        28.58142        -0.68240
   C      -12.42080        27.68215        -1.43948
   C      -11.93493        26.43647        -1.73157
   H       -3.44129        -3.16264         1.89315
   H        0.56398        -0.49489         3.21027
   H        1.16241        -2.20213         4.82632
   H        0.71049        -4.35505         5.93404
   H       -1.25649        -5.69255         5.29432
   H       -2.78836        -4.88716         3.54171
   H       -3.96556         1.38151        -0.71961
   H       -1.65033         3.26980         1.75164
   H       -1.67652         9.42913         1.38309
   H       -1.45477        14.69111         2.33335
   H       -0.74796        12.26913         2.76019
   H       -5.65673        14.81959        -2.95965
   H       -7.13000        20.80512        -2.40989
   H       -5.24294        22.61785         0.53608
   H      -10.71751        24.04481        -2.13949
   H       -8.03857        27.29042         0.53485
   H       -9.82124        28.91326         0.35363
   H      -12.05324        29.56034        -0.46082
   H      -13.39735        27.98121        -1.78990
   H      -12.51941        25.73937        -2.31401
*
