# ORCA input file
# SCF done       -193.404459988123          0.000236617216
! CAM-B3LYP def2-SVP def2/J RIJCOSX Grid4 TightSCF
%maxcore 5000
%tddft
    Mode sTDDFT
    Ethresh 5.0
    maxcore 5000
end

%pal
  nprocs 6
  end
* xyz 0 1
   C        0.46273         0.09416         4.06315
   O       -0.19650         0.50627         3.13159
   N        0.10152         0.36497         5.37074
   C       -1.09003         1.16332         5.61254
   C        0.77549        -0.05597         6.49646
   O        0.39168         0.22621         7.60547
   N        1.91336        -0.81884         6.28428
   C        2.64726        -1.28569         7.44915
   C        2.41167        -1.17447         5.05414
   O        3.42933        -1.85383         4.99346
   C        1.68080        -0.70981         3.89352
   C        2.05279        -0.96685         2.59731
   C        3.13379        -1.66536         2.04124
   C        3.30759        -1.76546         0.65390
   C        4.44064        -2.47593         0.31357
   C        5.14759        -2.93415         1.45510
   S        4.41444        -2.48707         2.92727
   C        6.29477        -3.63096         1.00989
   C        6.31707        -3.61253        -0.40313
   C        5.15065        -2.89259        -0.88515
   C        4.80386        -2.65873        -2.18324
   C        5.58760        -3.11660        -3.26385
   N        6.22073        -3.48470        -4.14606
   C        3.63826        -1.94370        -2.53143
   N        2.69255        -1.36290        -2.81890
   C        7.42358        -4.25696        -0.93389
   C        8.25008        -4.77178         0.06018
   S        7.63494        -4.45745         1.67569
   C        9.47573        -5.45863        -0.13078
   C       10.22070        -5.94618         0.96787
   C       11.48774        -6.60990         0.80564
   N       12.14558        -7.04908         1.88401
   C       11.63762        -6.87376         3.07965
   C       10.37855        -6.20921         3.24134
   N        9.71977        -5.77265         2.19544
   C        9.83170        -6.01747         4.53460
   N        9.41643        -5.87718         5.59242
   C       12.34925        -7.34961         4.20898
   N       12.90351        -7.72465         5.13811
   C       12.08185        -6.81005        -0.46122
   C       11.32761        -6.34734        -1.56528
   C       10.05004        -5.68925        -1.40365
   N        9.53090        -5.34175        -2.58216
   S       10.52091        -5.78726        -3.75924
   N       11.66603        -6.44269        -2.85182
   C       13.35744        -7.41700        -0.58394
   C       14.07373        -7.61468        -1.76050
   C       15.30425        -8.20754        -1.52431
   C       15.52792        -8.47562        -0.15587
   S       14.22184        -7.98429         0.83480
   C       16.80416        -9.06601        -0.02377
   C       17.39821        -9.16269        -1.30610
   C       16.46457        -8.63937        -2.28953
   C       16.62330        -8.57280        -3.64173
   C       17.77088        -9.05322        -4.31063
   N       18.67826        -9.44968        -4.88746
   C       15.62823        -8.02733        -4.48221
   N       14.82612        -7.58249        -5.17019
   C       18.67855        -9.69490        -1.27650
   C       19.08083       -10.02698         0.01226
   S       17.81756        -9.66324         1.20071
   C       20.25055       -10.61259         0.53555
   C       21.47300       -10.92820         0.00537
   C       21.95105       -10.60266        -1.33747
   O       21.33171        -9.95963        -2.16150
   N       23.21923       -11.05505        -1.65578
   C       24.07513       -11.75007        -0.82492
   O       25.16705       -12.11699        -1.18939
   N       23.60955       -11.99374         0.45214
   C       22.37654       -11.62104         0.94338
   O       22.07494       -11.87890         2.09101
   C       24.48500       -12.70191         1.37247
   C       23.68824       -10.73856        -2.99617
   H       -1.51932         1.41681         4.64655
   H       -0.82232         2.06668         6.15935
   H       -1.80090         0.59148         6.20767
   H        2.13004        -0.93270         8.33720
   H        3.66444        -0.89588         7.42028
   H        2.69093        -2.37441         7.44001
   H        1.37771        -0.53527         1.86192
   H        2.61892        -1.32202        -0.04318
   H        7.65421        -4.36383        -1.97780
   H       13.68448        -7.32210        -2.71818
   H       19.31768        -9.83369        -2.12938
   H       20.17289       -10.88283         1.58741
   H       25.40348       -12.94675         0.84635
   H       23.98939       -13.60814         1.71915
   H       24.69566       -12.06900         2.23409
   H       22.98322       -11.13064        -3.72834
   H       24.66794       -11.18889        -3.12834
   H       23.74706        -9.65697        -3.11661
*
