# ORCA input file
# SCF done       -183.590784457127          0.000318391016
! CAM-B3LYP def2-SVP def2/J RIJCOSX Grid4 TightSCF
%maxcore 5000
%tddft
    Mode sTDDFT
    Ethresh 5.0
    maxcore 5000
end

%pal
  nprocs 6
  end
* xyz 0 1
   C       -0.80773        -1.70840         0.92266
   S       -0.56580         0.03540         0.96447
   C       -1.82396         0.24969         2.21518
   O       -2.14156         1.30061         2.68803
   N       -2.34212        -0.97452         2.52325
   C       -1.85002        -2.09497         1.87193
   O       -2.26907        -3.20772         2.10012
   C       -3.38938        -1.08749         3.51616
   C       -0.06259        -2.46019         0.06729
   C       -0.03601        -3.84989        -0.18266
   C       -0.72379        -4.92392         0.36382
   C       -0.35887        -6.13328        -0.21810
   C        0.62041        -5.98990        -1.22606
   S        1.09047        -4.37112        -1.44617
   C        0.90678        -7.26393        -1.76156
   C        0.11859        -8.22192        -1.10110
   C       -0.69938        -7.54156        -0.10379
   C       -1.58982        -8.12220         0.74983
   C       -1.81828        -9.51514         0.74690
   N       -2.00301       -10.64690         0.74485
   C       -2.34558        -7.39872         1.69833
   N       -2.97546        -6.84990         2.48282
   C        0.32459        -9.51529        -1.57576
   C        1.26359        -9.55632        -2.59370
   S        1.90331        -7.95663        -2.96428
   C        1.70559       -10.68649        -3.33738
   C        2.65845       -10.57806        -4.32443
   C        3.11265       -11.61853        -5.12760
   C        2.65534       -12.99404        -4.88190
   C        1.72839       -13.33360        -3.95925
   S        0.93556       -12.21346        -2.93044
   C        3.38878       -13.80661        -5.78890
   C        4.23531       -13.00471        -6.55550
   C        4.98783       -13.75915        -7.48236
   C        4.70090       -15.08418        -7.39421
   S        3.51161       -15.47067        -6.19586
   C        4.06125       -11.62683        -6.17449
   C        4.75767       -10.56947        -6.80447
   C        4.48468        -9.23878        -6.71574
   C        5.24302        -8.20953        -7.31922
   C        6.35325        -8.28112        -8.15150
   C        6.82623        -7.02166        -8.50237
   C        6.08318        -5.96921        -7.93121
   S        4.78749        -6.54306        -6.97804
   C        6.65068        -4.73627        -8.31777
   C        7.76329        -5.00964        -9.15263
   C        7.90179        -6.44854        -9.29907
   C        8.83539        -7.12859       -10.02499
   C        9.84050        -6.47372       -10.76759
   N       10.66210        -5.95152       -11.37297
   C        8.85454        -8.53765       -10.07917
   N        8.86712        -9.68390       -10.12156
   C        8.39598        -3.85488        -9.57041
   C        7.79802        -2.69644        -9.05859
   S        6.40438        -3.07337        -8.04206
   C        8.29567        -1.41699        -9.34729
   C        7.88771        -0.18494        -8.90348
   C        8.48813         1.09032        -9.24790
   C        9.49291         1.32297       -10.14979
   C       10.01903         2.60055       -10.43693
   N       10.49333         3.60720       -10.71934
   C       10.14073         0.34586       -10.93495
   N       10.71310        -0.38303       -11.61345
   C        7.80224         2.11983        -8.46604
   C        6.79094         1.51011        -7.70218
   C        6.79515         0.06382        -7.95411
   O        6.04190        -0.76143        -7.46259
   C        5.97514         2.24930        -6.86739
   C        6.17731         3.61813        -6.79505
   C        7.17602         4.24233        -7.53962
   C        7.99369         3.48744        -8.38105
   C        7.39322         5.71703        -7.42251
   H       -3.03979        -0.69416         4.47048
   H       -3.63474        -2.14431         3.60847
   H       -4.26527        -0.52177         3.19878
   H        0.63721        -1.89451        -0.53847
   H       -1.45232        -4.80184         1.14448
   H       -0.17710       -10.39373        -1.21189
   H        3.08941        -9.59611        -4.45170
   H        1.40827       -14.35269        -3.80959
   H        5.70240       -13.35393        -8.17534
   H        5.11979       -15.88598        -7.97020
   H        5.57780       -10.88035        -7.43821
   H        3.62519        -8.89738        -6.16013
   H        6.78277        -9.20898        -8.48026
   H        9.25834        -3.81627       -10.21255
   H        9.14740        -1.43934       -10.01653
   H        5.20337         1.76118        -6.29233
   H        5.55139         4.21693        -6.14974
   H        8.76329         3.98366        -8.94976
   H        8.07895         5.92231        -6.59966
   H        6.45910         6.23396        -7.21647
   H        7.83244         6.11877        -8.33199
*
