# ORCA input file
# SCF done       -214.442940082191          0.000914015320
! CAM-B3LYP def2-SVP def2/J RIJCOSX Grid4 TightSCF
%maxcore 5000
%tddft
    Mode sTDDFT
    Ethresh 5.0
    maxcore 5000
end

%pal
  nprocs 6
  end
* xyz 0 1
   C        0.66357         3.58871         3.76049
   C        1.53253         2.95679         2.90954
   C        2.85248         2.59480         3.25342
   N        3.93295         2.27263         3.46976
   C        1.25965         2.59615         1.57326
   N        1.11964         2.27960         0.47827
   C        0.96909         4.00046         5.12624
   C       -0.14764         4.69937         5.65230
   C       -0.16905         5.21671         6.92531
   C        0.96469         5.03289         7.72205
   C        2.07454         4.33171         7.19129
   C        2.09673         3.81144         5.90201
   S        3.35923         4.21897         8.35141
   C        2.42091         5.09264         9.51228
   C        1.20073         5.45614         9.06018
   C       -1.20602         4.74673         4.63638
   O       -2.29441         5.28781         4.74728
   C       -0.69902         4.00535         3.47511
   C       -1.41949         3.70084         2.35052
   C       -2.73513         4.04317         1.99587
   C       -3.32869         3.56494         0.82172
   C       -4.62494         4.01640         0.66104
   C       -5.02740         4.86929         1.71644
   S       -3.82811         5.08636         2.90551
   C       -6.36148         5.27194         1.46500
   C       -6.80379         4.68128         0.26781
   C       -5.72562         3.87234        -0.27871
   C       -5.75435         3.13022        -1.42229
   C       -4.65140         2.36243        -1.85302
   N       -3.76371         1.72992        -2.20739
   C       -6.89797         3.07580        -2.24674
   N       -7.82969         3.03381        -2.91388
   C       -8.11902         5.01512        -0.05046
   C       -8.67905         5.85902         0.89256
   S       -7.56193         6.24641         2.19227
   C       -9.99373         6.38910         0.90256
   C      -10.54041         7.27394         1.81413
   C      -11.87126         7.56895         1.52090
   C      -12.34133         6.89794         0.37858
   S      -11.14491         5.91367        -0.33920
   C      -13.69815         7.25136         0.17344
   C      -14.08663         8.15045         1.18127
   C      -12.95054         8.38079         2.06135
   C      -12.90694         9.18407         3.16204
   C      -11.73864         9.32216         3.94148
   N      -10.78856         9.43309         4.57345
   C      -14.02663         9.92629         3.59422
   N      -14.93642        10.52847         3.94617
   C      -15.41686         8.55292         1.06771
   C      -16.04639         7.96322        -0.01398
   S      -14.97041         6.89768        -0.90915
   C      -17.39140         8.12226        -0.43088
   C      -18.03335         7.47832        -1.47590
   C      -19.36912         7.84043        -1.62281
   C      -19.74421         8.79174        -0.66294
   S      -18.46138         9.22064         0.40193
   C      -21.08331         9.23292        -0.72544
   C      -21.86974         8.63474        -1.73109
  Si      -20.83163         7.43062        -2.72658
   C      -20.61093         7.99494        -4.49466
   C      -21.38004         5.65005        -2.54727
   C      -23.14556         9.16581        -1.75107
   C      -23.36984        10.15181        -0.78855
   S      -21.93590        10.39241         0.19570
   C      -24.52706        10.87918        -0.48617
   C      -25.68347        11.03300        -1.20983
   C      -26.91109        11.46220        -0.49651
   O      -26.99089        11.87392         0.63707
   C      -28.02053        11.23629        -1.45677
   C      -27.48450        10.80733        -2.68380
   C      -28.32991        10.47081        -3.72724
   C      -29.70713        10.58916        -3.54882
   C      -30.23085        11.03551        -2.32487
   C      -29.37827        11.36237        -1.26457
   C      -31.62642        11.19467        -2.12899
   N      -32.72808        11.38999        -1.88539
   C      -30.66584        10.18250        -4.63039
   O      -31.74121         9.71523        -4.38696
   O      -30.25059        10.36139        -5.89048
   C      -26.02140        10.82162        -2.59156
   C      -25.18662        10.89902        -3.68170
   C      -23.80706        11.16920        -3.61029
   N      -22.68419        11.40847        -3.61285
   C      -25.65114        10.82206        -5.00842
   N      -26.00765        10.75812        -6.09865
   H       -1.03493         5.74464         7.29389
   H        2.96586         3.28310         5.54767
   H        2.84815         5.28288        10.47766
   H        0.48149         6.00406         9.64164
   H       -0.93138         3.08315         1.60619
   H       -2.80787         2.91486         0.14091
   H       -8.65506         4.67252        -0.91738
   H       -9.98333         7.67353         2.64244
   H      -15.91935         9.23457         1.73023
   H      -17.52945         6.76343        -2.10257
   H      -20.41457         9.06398        -4.55870
   H      -21.50218         7.80227        -5.08884
   H      -19.78589         7.48427        -4.98743
   H      -21.51120         5.35799        -1.50669
   H      -20.65629         4.96373        -2.98203
   H      -22.32698         5.46895        -3.05168
   H      -23.92029         8.81896        -2.41169
   H      -24.55879        11.33642         0.49861
   H      -27.93404        10.07565        -4.65092
   H      -29.77499        11.70132        -0.31977
   H      -29.37752        10.77092        -5.96917
*
