# ORCA input file
# SCF done       -155.876357434664          0.000475967770
! CAM-B3LYP def2-SVP def2/J RIJCOSX Grid4 TightSCF
%maxcore 5000
%tddft
    Mode sTDDFT
    Ethresh 5.0
    maxcore 5000
end

%pal
  nprocs 6
  end
* xyz 0 1
   C       -3.19497        -2.47419        -1.71511
   C       -2.34830        -2.36383        -0.65283
   C       -2.09738        -1.01529        -0.33918
   C       -2.77435        -0.13294        -1.18958
   S       -3.70792        -0.95228        -2.36023
   C       -2.46663         1.20416        -0.80415
   C       -1.59065         1.15082         0.29573
   C       -1.33055        -0.24307         0.62345
   C       -0.53438        -0.71862         1.62406
   C        0.16411         0.13659         2.50267
   N        0.73528         0.82135         3.22354
   C       -0.35446        -2.09958         1.84966
   N       -0.20513        -3.22091         2.03731
   C       -1.22485         2.41503         0.75402
   C       -1.81897         3.41269         0.00583
   S       -2.84107         2.79715        -1.27641
   C       -1.69464         4.82394         0.15481
   N       -2.36155         5.59233        -0.69364
   N       -2.33203         6.88835        -0.64915
   C       -1.62067         7.57136         0.22842
   C       -0.84599         6.86536         1.19301
   C       -0.89274         5.43368         1.16064
   N       -0.14024         4.88252         2.10797
   S        0.56543         6.05193         2.95300
   N       -0.05068         7.31035         2.16445
   C       -1.68422         9.01834         0.15726
   C       -1.23199         9.86034         1.18029
   N       -1.29728        11.16922         1.08736
   C       -1.83856        11.68554        -0.01333
   N       -2.31289        10.97951        -1.03703
   C       -2.22375         9.67276        -0.96150
   C       -1.90684        13.14284        -0.08186
   N       -1.96680        13.72915        -1.25934
   N       -1.97244        15.01639        -1.40717
   C       -1.90439        15.86657        -0.39642
   C       -1.91111        15.35882         0.93242
   C       -1.90464        13.93448         1.09591
   N       -1.95380        13.58029         2.37754
   S       -1.99783        14.89936         3.27844
   N       -1.96594        15.99811         2.10028
   C       -1.90303        17.27115        -0.71770
   C       -1.39896        18.29516         0.00240
   C       -1.84630        19.69593        -0.29309
   O       -2.39235        20.08116        -1.29682
   C       -1.53639        20.45708         0.93088
   C       -1.87808        21.73983         1.25314
   C       -1.50817        22.25535         2.51503
   C       -0.79123        21.42541         3.42682
   C       -0.43882        21.94156         4.68921
   C       -0.78822        23.22331         5.01160
   C       -1.48978        24.05598         4.12823
   C       -1.84000        23.57136         2.89899
   F       -0.45485        23.71674         6.21681
   C       -0.44165        20.10474         3.06331
   C       -0.80330        19.62992         1.83118
   C       -0.56893        18.34012         1.19399
   C        0.40263        17.44546         1.54186
   C        0.72922        16.29804         0.78830
   N        1.04836        15.35588         0.21633
   C        1.21860        17.57831         2.68505
   N        1.88976        17.62339         3.61469
   H       -3.55892        -3.37322        -2.17105
   H       -1.93235        -3.20565        -0.13025
   H       -0.56835         2.62560         1.57879
   H       -0.80627         9.46367         2.09228
   H       -2.58980         9.10304        -1.80479
   H       -2.42151        17.52924        -1.63474
   H       -2.42818        22.35271         0.55495
   H        0.10474        21.33024         5.39250
   H       -1.73785        25.05872         4.43804
   H       -2.38072        24.19379         2.20217
   H        0.09216        19.49409         3.77412
*
