# ORCA input file
# SCF done       -222.631302160041          0.000771906878
! CAM-B3LYP def2-SVP def2/J RIJCOSX Grid4 TightSCF
%maxcore 5000
%tddft
    Mode sTDDFT
    Ethresh 5.0
    maxcore 5000
end

%pal
  nprocs 6
  end
* xyz 0 1
   C       -3.25953         3.69180        -6.28894
   C       -2.62496         3.41787        -5.11654
   C       -2.68855         4.51222        -4.23165
   C       -3.38305         5.59712        -4.77279
   S       -3.95224         5.28019        -6.34922
   C       -3.39380         6.65534        -3.81205
   C       -2.70101         6.22847        -2.67803
   C       -2.24880         4.86098        -2.89157
   C       -1.58932         4.06769        -1.99829
   C       -1.27131         4.51353        -0.69870
   N       -1.03264         4.87471         0.36348
   C       -1.20857         2.74459        -2.30351
   N       -0.89895         1.66756        -2.54738
   C       -2.63263         7.21177        -1.67900
   C       -3.29530         8.35650        -2.03662
   S       -3.98020         8.25108        -3.65095
   C       -3.36070         9.62011        -1.31999
   C       -2.83809        10.73335        -1.90563
   S       -2.85330        12.13339        -0.91328
   C       -3.60927        11.22102         0.35554
   C       -3.86909         9.88465         0.00461
   C       -4.67088         9.09767         0.86886
   C       -5.13095         7.72996         0.43277
   C       -4.36052         6.61316         1.14261
   C       -5.06458         9.60482         2.09817
   C       -6.16826         8.95987         2.89214
   C       -7.51322         9.51840         2.41430
   C       -4.58531        10.86230         2.53899
   C       -4.73370        11.53074         3.80769
   C       -4.34031        12.83275         3.73650
   S       -3.68632        13.30515         2.21512
   C       -3.94744        11.69945         1.61071
   C       -5.01840        10.97421         5.12774
   C       -4.44264         9.86985         5.61436
   C       -4.46460         9.50935         7.02818
   C       -4.27109        10.49700         7.94710
   S       -4.05978         9.95386         9.56372
   C       -4.23891         8.31399         9.02504
   C       -4.49749         8.20391         7.64975
   C       -4.79204         6.92134         7.12381
   C       -5.31223         6.81812         5.71403
   C       -6.83568         6.97752         5.72290
   C       -4.72211         5.79382         7.92925
   C       -5.05098         4.43295         7.37034
   C       -3.79148         3.72616         6.86768
   C       -4.31841         5.90257         9.28410
   C       -4.03947         4.89887        10.28603
   C       -3.67881         5.45350        11.47450
   S       -3.67164         7.17385        11.49565
   C       -4.12109         7.18552         9.81949
   C       -4.03897         3.44449        10.15608
   C       -3.00541         2.68834        10.52939
   C       -3.04145         1.22900        10.44602
   C       -4.05715         0.54905        11.03975
   S       -3.97071        -1.16325        10.87341
   C       -2.52395        -0.98863         9.93122
   C       -2.11842         0.34473         9.77567
   C       -0.96031         0.62248         9.00948
   C       -0.55999         2.06624         8.84822
   C        0.44702         2.50339         9.91376
   C       -0.22960        -0.40859         8.43101
   C        1.07924        -0.11824         7.74045
   C        2.25989        -0.72019         8.50542
   C       -0.68492        -1.75040         8.53637
   C       -0.17530        -2.98928         7.97899
   C       -0.90258        -4.06896         8.39601
   S       -2.22510        -3.69785         9.41910
   C       -1.81811        -2.01205         9.32259
   C        0.89923        -3.15952         7.02967
   C        1.62876        -4.28368         6.88953
   C        2.66078        -4.44368         5.91713
   C        3.17509        -3.52150         5.02584
   C        4.18821        -4.06370         4.23225
   C        4.44761        -5.40912         4.51605
   S        3.45235        -6.00485         5.76837
   C        5.48373        -5.86022         3.64736
   C        5.87154        -4.79772         2.82314
   C        5.08111        -3.63060         3.16312
   C        5.15626        -2.38220         2.61642
   C        6.06252        -2.06640         1.58329
   N        6.79849        -1.80487         0.74340
   C        4.33819        -1.32316         3.06082
   N        3.67651        -0.46207         3.43088
   C        6.89672        -5.15847         1.92653
   C        7.25799        -6.46069         2.08427
   S        6.36788        -7.28368         3.32566
   H       -3.37014         3.05400        -7.14274
   H       -2.13855         2.48335        -4.90443
   H       -2.10933         7.10718        -0.74766
   H       -2.40392        10.79257        -2.88537
   H       -4.99838         7.62819        -0.64285
   H       -6.19665         7.61448         0.63422
   H       -3.28880         6.74450         1.02869
   H       -4.63345         5.64602         0.72587
   H       -4.57584         6.60021         2.20794
   H       -6.06591         9.19919         3.94611
   H       -6.16528         7.87866         2.78443
   H       -7.54893        10.59433         2.56994
   H       -8.32747         9.06170         2.97262
   H       -7.66606         9.32477         1.35472
   H       -4.34140        13.54697         4.53735
   H       -5.61800        11.59691         5.77939
   H       -3.81297         9.27140         4.96780
   H       -4.17712        11.54620         7.74487
   H       -5.03719         5.86653         5.26206
   H       -4.88061         7.59899         5.09731
   H       -7.29637         6.25051         6.38819
   H       -7.24407         6.83884         4.72487
   H       -7.10562         7.97136         6.07340
   H       -5.76890         4.51171         6.55668
   H       -5.52718         3.83193         8.14084
   H       -4.03162         2.72893         6.50585
   H       -3.06372         3.63531         7.66907
   H       -3.33431         4.28962         6.05727
   H       -3.43381         4.92436        12.37506
   H       -4.91574         2.96316         9.74821
   H       -2.11392         3.14849        10.93265
   H       -4.86071         0.97317        11.61036
   H       -1.45529         2.68145         8.92895
   H       -0.14911         2.24682         7.85442
   H        0.06697         2.28501        10.90967
   H        0.63510         3.57240         9.83846
   H        1.39137         1.97890         9.79492
   H        1.24574         0.95256         7.66898
   H        1.05925        -0.49300         6.71724
   H        2.29710        -0.31437         9.51428
   H        3.19204        -0.47739         7.99991
   H        2.18057        -1.80141         8.57853
   H       -0.75775        -5.09006         8.10261
   H        1.09715        -2.33823         6.36244
   H        1.46371        -5.12928         7.54291
   H        2.83554        -2.50481         4.96314
   H        7.34313        -4.49765         1.20596
   H        8.00532        -7.00707         1.54492
*
