# ORCA input file
# SCF done       -209.325716769515          0.000798196283
! CAM-B3LYP def2-SVP def2/J RIJCOSX Grid4 TightSCF
%maxcore 5000
%tddft
    Mode sTDDFT
    Ethresh 5.0
    maxcore 5000
end

%pal
  nprocs 6
  end
* xyz 0 1
   C       -1.02734        -0.52964        12.10218
   C       -0.52924        -1.11400        10.97875
   C       -0.70481        -0.29084         9.84865
   C       -1.34372         0.91497        10.16416
   S       -1.72344         1.03450        11.82505
   C       -1.47766         1.68154         8.97561
   C       -0.92326         0.95959         7.91123
   C       -0.41793        -0.30865         8.42813
   C        0.19886        -1.29680         7.71560
   C        0.42461        -1.19089         6.32805
   N        0.60778        -1.11528         5.19815
   C        0.65218        -2.48692         8.32063
   N        1.02640        -3.45499         8.80879
   C       -1.00092         1.63740         6.69290
   C       -1.60709         2.87274         6.82297
   S       -2.09626         3.19469         8.48570
   C       -1.86326         3.85454         5.82211
   C       -2.45096         5.05400         6.12987
   C       -2.72665         6.07356         5.22235
   C       -2.26680         5.99243         3.82963
   C       -1.68948         4.89157         3.30098
   S       -1.38851         3.44287         4.17715
   C       -2.55602         7.26932         3.27145
   C       -3.14517         8.08603         4.24078
   C       -3.46794         9.36576         3.73897
   C       -3.11991         9.48917         2.43151
   S       -2.39614         8.06712         1.75696
   C       -3.29009         7.33732         5.45769
   C       -3.87939         7.79551         6.66850
   C       -4.51423         6.94987         7.51932
   C       -4.94161         7.13628         8.86782
   S       -5.27765         5.52380         9.60830
   C       -4.31870         5.64108        11.07068
   C       -3.58674         4.63313        11.61281
   S       -2.82898         5.11625        13.08015
   C       -3.48555         6.70204        12.94569
   C       -4.25660         6.83545        11.83412
   S       -5.13538         8.29108        11.38533
   C       -5.01979         8.28369         9.60196
   C       -5.09598         9.62298         9.10389
   C       -5.67083         9.97855         7.92872
   C       -5.78147        11.30285         7.41538
   C       -5.23838        12.42636         7.99177
   C       -5.35399        13.72037         7.49090
   C       -6.11647        14.00416         6.26952
   C       -6.71932        13.05575         5.51961
   S       -6.68718        11.38341         5.90257
   C       -6.04369        15.41338         6.10674
   C       -5.28959        15.97880         7.14002
   C       -5.18611        17.38172         7.00145
   C       -5.84749        17.83037         5.90321
   S       -6.62084        16.58216         4.98685
   C       -4.84336        14.92549         8.01339
   C       -4.03181        14.99497         9.16921
   C       -3.58424        16.09974         9.81496
   C       -2.75579        16.01177        10.96993
   C       -2.10988        14.91274        11.46616
   C       -1.40867        15.14206        12.67063
   C       -0.64155        14.22343        13.41614
   C       -0.50827        12.83216        13.03632
   C        0.58857        12.02789        13.17145
   C        0.36584        10.71134        12.71562
   C       -0.89183        10.48047        12.24096
   S       -1.83540        11.92441        12.35573
   C       -1.45253         9.23737        11.65368
  Cl        1.58572         9.49623        12.75299
   C       -0.01465        14.72652        14.55493
   C       -0.11569        16.07539        14.96931
   C       -0.87265        16.99334        14.21763
   C       -1.51069        16.49277        13.08807
   S       -2.48436        17.41990        11.97921
   C       -0.98858        18.39418        14.57421
   C       -2.09532        19.18853        14.49520
   C       -1.83467        20.52690        14.86223
   C       -0.54040        20.77729        15.21071
   S        0.39209        19.32244        15.09623
   C        0.08052        22.05625        15.63891
  Cl       -3.06443        21.73308        14.86304
   C        0.56634        16.29867        16.20170
   C        1.15367        15.18772        16.68866
   S        0.92952        13.79623        15.68832
   H       -1.03369        -0.91951        13.10018
   H       -0.06252        -2.08193        10.96724
   H       -0.63674         1.26335         5.75290
   H       -2.68088         5.22776         7.17233
   H       -1.37386         4.83596         2.27105
   H       -3.93166        10.15013         4.30971
   H       -3.24412        10.34429         1.79614
   H       -3.79074         8.85073         6.88275
   H       -4.66521         5.93642         7.17069
   H       -3.47088         3.63322        11.24810
   H       -3.28583         7.43450        13.70087
   H       -4.76106        10.38425         9.79551
   H       -6.10302         9.20214         7.31106
   H       -4.68582        12.28319         8.90880
   H       -7.26637        13.28450         4.61862
   H       -4.65285        18.03680         7.66509
   H       -5.93540        18.84220         5.55848
   H       -3.75248        14.03627         9.58374
   H       -3.87528        17.08835         9.49696
   H       -2.10960        13.96735        10.96005
   H        1.53850        12.36172        13.54432
   H       -1.02495         8.36521        12.14469
   H       -1.21548         9.17554        10.58990
   H       -2.53372         9.22207        11.76379
   H       -3.07184        18.83722        14.21892
   H        0.86701        22.35275        14.94534
   H        0.52649        21.95538        16.62784
   H       -0.67565        22.83675        15.66942
   H        0.59794        17.24889        16.70092
   H        1.72243        15.08336        17.59165
*
