# ORCA input file
# SCF done       -207.139377285301          0.000739540285
! CAM-B3LYP def2-SVP def2/J RIJCOSX Grid4 TightSCF
%maxcore 5000
%tddft
    Mode sTDDFT
    Ethresh 5.0
    maxcore 5000
end

%pal
  nprocs 6
  end
* xyz 0 1
   C        4.50836        -0.90100         2.12593
   C        4.71285         0.45161         1.86141
   C        5.25244         1.39080         2.90114
   O        4.99664         2.56083         2.89290
   O        6.03805         0.85821         3.84497
   C        4.36233         0.99330         0.61272
   C        4.57296         2.36169         0.30323
   N        4.73084         3.43119        -0.07489
   C        3.82017         0.17956        -0.38663
   C        3.63000        -1.15651        -0.11031
   C        3.96427        -1.70920         1.13953
   C        3.60906        -3.12968         1.14085
   C        3.44048        -3.89595         2.26454
   C        3.80204        -3.47127         3.55866
   N        4.12353        -3.17051         4.61925
   C        2.83199        -5.16930         2.28555
   N        2.28577        -6.17135         2.40548
   C        3.23699        -3.47846        -0.21470
   C        3.08345        -2.22026        -0.98928
   O        2.64930        -2.09536        -2.10884
   C        3.09644        -4.67456        -0.84560
   C        3.54257        -5.96803        -0.42822
   C        2.84388        -7.11716        -0.87397
   O        1.74702        -6.89625        -1.62202
   C        0.99018        -8.00243        -2.07035
   C        3.30752        -8.36818        -0.49586
   C        4.44334        -8.53012         0.29313
   C        5.11793        -7.39302         0.76942
   C        4.66336        -6.14222         0.38406
   O        6.19358        -7.38657         1.60820
   C        6.27945        -8.36503         2.62131
   C        4.89186        -9.91456         0.51916
   C        6.18032       -10.31930         0.12592
   O        6.97970        -9.35666        -0.40132
   C        8.27817        -9.70477        -0.81505
   C        6.53482       -11.65112         0.26989
   C        5.63900       -12.59586         0.76826
   C        4.35388       -12.18458         1.17158
   C        4.00643       -10.84886         1.03480
   O        3.52692       -13.12811         1.70835
   C        2.37733       -12.69738         2.40245
   C        6.02769       -13.99721         0.85953
   C        5.16346       -14.99845         0.51671
   C        5.43334       -16.36344         0.60534
   C        6.76550       -16.83363         0.98291
   C        7.78285       -16.01349         1.34134
   S        7.64671       -14.30812         1.42580
   C        6.72128       -18.25164         0.86080
   C        5.45341       -18.64552         0.44091
   C        5.34748       -20.04609         0.30956
   C        6.51632       -20.66587         0.62460
   S        7.78184       -19.58465         1.09375
   C        4.61537       -17.47537         0.29198
   C        3.26672       -17.54026        -0.08605
   C        2.32554       -16.53756        -0.05917
   C        1.01340       -16.74943        -0.48250
   C       -0.02044       -15.83546        -0.52617
   C       -1.41369       -16.33176        -0.54449
   O       -1.78277       -17.46995        -0.73854
   C       -2.25561       -15.15563        -0.22678
   C       -3.60051       -15.08971        -0.01511
   C       -4.18265       -13.84571         0.32318
   C       -3.35297       -12.69348         0.43426
   C       -3.93756       -11.45956         0.78053
   C       -5.28332       -11.37279         1.00432
   C       -6.10279       -12.51233         0.89329
   C       -5.56503       -13.72409         0.55907
   F       -7.41950       -12.39971         1.12027
   F       -5.83564       -10.19634         1.33351
   C       -1.96152       -12.79305         0.19694
   C       -1.42212       -14.00627        -0.13156
   C       -0.04843       -14.40549        -0.44359
   C        0.95059       -13.52109        -0.79347
   C        2.18306       -13.88013        -1.36517
   N        3.19940       -14.07790        -1.86500
   C        0.84569       -12.12313        -0.72412
   N        0.86797       -10.97325        -0.67063
   H        4.74399        -1.31256         3.09628
   H        6.17895        -0.09364         3.75220
   H        3.55238         0.58837        -1.34904
   H        2.62159        -4.63194        -1.82074
   H        0.14266        -7.57602        -2.60407
   H        0.63315        -8.60981        -1.23668
   H        1.57037        -8.63091        -2.75201
   H        2.80486        -9.25944        -0.83742
   H        5.23354        -5.28471         0.70670
   H        6.84171        -9.24426         2.29605
   H        5.28916        -8.67712         2.96098
   H        6.81095        -7.89191         3.44839
   H        8.72213        -8.78177        -1.18347
   H        8.25801       -10.44496        -1.62115
   H        8.87850       -10.08647         0.01735
   H        7.50896       -11.99597        -0.03943
   H        3.02786       -10.50372         1.32684
   H        1.94560       -13.59885         2.83653
   H        1.64625       -12.23299         1.73410
   H        2.63336       -11.99574         3.20046
   H        4.23184       -14.68001         0.08514
   H        8.75791       -16.38687         1.61214
   H        4.46413       -20.57411        -0.00037
   H        6.72509       -21.71775         0.61248
   H        2.93308       -18.51215        -0.43288
   H        2.57589       -15.57516         0.35436
   H        0.72114       -17.76629        -0.72572
   H       -4.21473       -15.97296        -0.10139
   H       -3.32557       -10.57543         0.86841
   H       -6.20609       -14.58791         0.47855
   H       -1.35830       -11.90390         0.29199
*
