# ORCA input file
# SCF done       -175.893632605668          0.000812061049
! CAM-B3LYP def2-SVP def2/J RIJCOSX Grid4 TightSCF
%maxcore 5000
%tddft
    Mode sTDDFT
    Ethresh 5.0
    maxcore 5000
end

%pal
  nprocs 6
  end
* xyz 0 1
   C       -1.58309        -0.49891         0.05642
   S       -0.55834         0.18088        -1.12961
   C        0.17541         1.24436         0.05012
   C       -0.39782         1.06520         1.29414
   C       -1.39685         0.05937         1.28843
   C       -2.18220        -0.31745         2.49726
   S       -3.94678         0.20850         2.28953
   C       -1.57862         0.26171         3.77168
   C       -1.18011         1.71886         3.57108
   C       -0.06190         1.82936         2.53594
   C        1.20020         2.11810        -0.41795
   C        2.09960         2.79320         0.33380
   C        3.07800         3.67944        -0.19504
   C        3.29985         4.08400        -1.49732
   C        4.35049         4.99726        -1.60059
   C        4.94442         5.29578        -0.35490
   S        4.20239         4.44645         0.92859
   C        5.97224         6.23481        -0.55556
   C        6.03965         6.54066        -1.93296
   C        5.00941         5.77379        -2.62863
   C        4.69418         5.80681        -3.95804
   C        3.64274         5.02867        -4.48906
   N        2.77740         4.41366        -4.92342
   C        5.32756         6.63152        -4.90684
   N        5.78570         7.29737        -5.72238
   C        7.01816         7.46694        -2.24468
   C        7.72012         7.90483        -1.11580
   S        7.12728         7.11306         0.35126
   C        8.74835         8.84388        -0.98303
   C        9.36426         9.56319        -1.98619
   C       10.36934        10.54419        -1.81896
   C       10.80005        11.11995        -2.98321
   C       10.16454        10.61214        -4.12880
   S        8.99719         9.38951        -3.68567
   C       10.30758        10.91075        -5.47723
   C       11.07590        11.87423        -6.15487
   C       10.90274        11.85611        -7.51268
   C       10.00057        10.87046        -7.97612
   S        9.38209         9.96485        -6.61182
   C        9.56773        10.66175        -9.26959
   C        8.68485         9.64650        -9.66260
   C        8.31298         8.49539        -8.96558
   C        7.33595         7.77164        -9.61958
   C        6.93522         8.34043       -10.84644
   S        7.81446         9.76827       -11.19917
   C        5.90191         7.54291       -11.38388
   C        5.63980         6.48182       -10.49292
   C        6.54012         6.57816        -9.36603
   C        6.64321         5.73562        -8.29726
   C        7.64062         5.87037        -7.30837
   N        8.47437         5.91909        -6.52160
   C        5.77715         4.63660        -8.12469
   N        5.07126         3.74580        -7.96968
   C        4.62583         5.63214       -10.93667
   C        4.11188         6.02242       -12.15435
   S        4.88948         7.48427       -12.75996
   C        3.07188         5.41715       -12.92009
   S        2.12600         6.40666       -13.98968
   C        1.14704         5.05150       -14.47082
   C        1.54703         3.90104       -13.82600
   C        2.65031         4.09951       -12.96107
   C        3.29902         2.96835       -12.22878
   S        5.13009         2.96368       -12.48203
   C        2.73497         1.61059       -12.63489
   C        1.21845         1.68852       -12.74976
   C        0.85658         2.57761       -13.93560
   C        0.09116         5.30721       -15.41515
   C       -0.55850         4.41889       -16.16388
   H       -2.27991        -1.26825        -0.21191
   H       -2.27422        -1.40405         2.57506
   H       -3.68627         1.46977         1.95416
   H       -0.69309        -0.32357         4.03389
   H       -2.29897         0.17102         4.58617
   H       -0.84360         2.14529         4.51730
   H       -2.04830         2.29345         3.23966
   H        0.86236         1.42710         2.96509
   H        0.11284         2.87909         2.28843
   H        1.25382         2.20825        -1.49449
   H        2.12195         2.66896         1.40491
   H        2.71919         3.73250        -2.32958
   H        7.21587         7.81599        -3.24029
   H        9.09455         9.03435         0.02492
   H       10.74377        10.80050        -0.84335
   H       11.55628        11.88261        -3.03986
   H       11.71860        12.56251        -5.63513
   H       11.39874        12.52570        -8.19346
   H        9.88659        11.36947       -10.02289
   H        8.76616         8.17937        -8.04635
   H        4.26584         4.79121       -10.37600
   H        3.19252         3.10063       -11.14849
   H        5.07329         2.84535       -13.80784
   H        3.03733         0.86553       -11.89825
   H        3.15018         1.31388       -13.60181
   H        0.79994         2.10399       -11.83091
   H        0.80109         0.69105       -12.89340
   H       -0.22321         2.73633       -13.97932
   H        1.16013         2.08011       -14.86267
   H       -0.15557         6.35681       -15.51891
   H       -0.33665         3.36816       -16.15727
   H       -1.33389         4.73711       -16.83894
*
