# ORCA input file
# SCF done       -129.509079806313          0.000444267876
! CAM-B3LYP def2-SVP def2/J RIJCOSX Grid4 TightSCF
%maxcore 5000
%tddft
    Mode sTDDFT
    Ethresh 5.0
    maxcore 5000
end

%pal
  nprocs 6
  end
* xyz 0 1
   C        4.48556        -0.41774        -0.79871
   O        4.63133        -1.44596        -1.40374
   N        5.56854         0.26700        -0.24933
   C        6.88302         0.04652        -0.60248
   N        7.69788         0.76206         0.09356
   C        6.92528         1.47854         0.96714
   C        5.61211         1.19659         0.77479
   N        3.25355         0.18921        -0.59129
   C        2.95262         1.54112        -0.64786
   C        1.60080         1.62835        -0.57097
   N        1.04888         0.38754        -0.45316
   C        2.02743        -0.46573        -0.47584
   C        1.91013        -1.90972        -0.40739
   C        0.96263        -2.52764        -1.17838
   C        0.88634        -3.93015        -1.25297
   C        1.75828        -4.73646        -0.56896
   C        2.74662        -4.14890         0.29153
   C        3.65918        -4.82043         1.06640
  Si        4.90462        -3.52901         1.57494
   C        3.60128        -2.20946         1.41756
   C        2.77492        -2.68938         0.42612
   C        1.66068        -6.17713        -0.72514
   C        1.63543        -7.17655         0.21173
   F        1.68102        -6.97115         1.53732
   C        1.49327        -8.46990        -0.33755
   F        1.49736        -9.57558         0.42853
   C        1.40833        -8.49085        -1.70498
   S        1.50210        -6.86688        -2.31188
   C        1.34416        -9.62586        -2.60696
   C        2.13440        -9.64061        -3.72646
   C        2.16920       -10.75275        -4.58749
   C        1.41388       -11.86596        -4.34247
   C        0.53573       -11.90622        -3.21135
   C       -0.33591       -12.92085        -2.88925
  Si       -0.85084       -12.56636        -1.13077
   C       -0.54184       -10.75321        -1.40438
   C        0.46362       -10.72769        -2.34269
   C        1.47501       -12.97934        -5.27604
   N        2.54511       -13.61507        -5.64700
   C        2.14437       -14.58616        -6.51632
   C        0.79548       -14.56099        -6.66632
   N        0.34212       -13.52349        -5.86958
   C       -0.93943       -12.97686        -5.81432
   O       -1.15434       -11.79836        -5.78038
   N       -1.96630       -13.91977        -5.81795
   C       -3.29008       -13.62049        -6.05748
   N       -4.04825       -14.65774        -5.95303
   C       -3.22559       -15.69726        -5.61201
   C       -1.94036       -15.27138        -5.52477
   H        7.14741        -0.63639        -1.38377
   H        7.37381         2.14825         1.67244
   H        4.73434         1.53733         1.28316
   H        3.70682         2.28678        -0.79188
   H        0.98168         2.50242        -0.58807
   H        0.28661        -1.92624        -1.76584
   H        0.13027        -4.37809        -1.88139
   H        3.80904        -5.88278         0.97709
   H        3.71608        -1.14936         1.58794
   H        2.76364        -8.79021        -3.94558
   H        2.80727       -10.72731        -5.45714
   H       -0.27743       -13.88553        -3.36993
   H       -0.67260        -9.95073        -0.69823
   H        2.85970       -15.24130        -6.97101
   H        0.13744       -15.13017        -7.28987
   H       -3.60477       -12.62902        -6.31183
   H       -3.62154       -16.67997        -5.45434
   H       -1.04229       -15.78880        -5.25880
*
