# ORCA input file
# SCF done       -180.394128541960          0.000963073425
! CAM-B3LYP def2-SVP def2/J RIJCOSX Grid4 TightSCF
%maxcore 5000
%tddft
    Mode sTDDFT
    Ethresh 5.0
    maxcore 5000
end

%pal
  nprocs 6
  end
* xyz 0 1
   C        3.13737         6.78110         0.57044
   C        2.71819         7.22939         1.92946
   O        2.11295         6.56716         2.74304
   C        3.24949         8.59876         2.05908
   C        3.79902         9.00361         0.84153
   C        3.59361         7.95293        -0.14870
   C        3.54915         8.12967        -1.50557
   C        3.05225         7.15040        -2.39215
   N        2.60205         6.39633        -3.13115
   C        3.89298         9.32942        -2.16030
   N        4.17447        10.27638        -2.74477
   C        4.39688        10.26301         0.70853
   C        4.42629        11.09432         1.79750
   C        3.86646        10.72301         3.03986
   C        3.26033         9.44123         3.18800
   C        2.70694         9.07500         4.43162
   C        2.74895         9.94546         5.48566
   C        3.34270        11.20998         5.34485
   C        3.88972        11.59082         4.15048
   C        3.13744         5.46198         0.25329
   C        3.85536         4.80561        -0.77969
   C        3.55648         3.57638        -1.33196
   C        4.47882         3.19851        -2.30542
   C        5.52602         4.11527        -2.47086
   S        5.34946         5.47254        -1.43132
   C        6.44038         3.70653        -3.44307
   C        6.08515         2.48623        -4.02947
   S        4.61847         1.82419        -3.36539
   C        6.97094         2.06040        -5.02231
   C        8.01388         2.93959        -5.20007
   S        7.89794         4.32349        -4.11524
   C        9.11983         2.87411        -6.11681
   C       10.20516         3.72355        -5.96183
   C       11.27971         3.72152        -6.83585
   C       11.34026         2.87984        -7.93653
   C       10.25117         1.97614        -8.12984
   N       10.27160         1.11418        -9.16263
   C        9.26551         0.29638        -9.31893
   C        8.17040         0.30673        -8.43990
   N        8.12356         1.12159        -7.42052
   C        9.14885         1.96986        -7.22198
   C       12.46391         2.94009        -8.83171
   C       12.60911         2.39575       -10.08712
   C       13.84395         2.70980       -10.65905
   C       14.66325         3.49254        -9.83763
   S       13.88948         3.85307        -8.34460
   C       15.88591         3.79888       -10.43890
   C       15.99435         3.24944       -11.72630
   S       14.58022         2.34764       -12.19525
   C       17.20533         3.52429       -12.35162
   C       18.04311         4.28459       -11.55386
   S       17.29306         4.68349       -10.01281
   C       19.32333         4.82086       -11.81687
   C       20.23354         4.50548       -12.77715
   C       21.31131         5.49021       -13.08477
   O       21.60661         6.45172       -12.40946
   C       21.87125         5.06133       -14.37785
   C       21.28283         3.85567       -14.76044
   C       20.37674         3.40697       -13.70518
   C       19.97180         2.11242       -13.50836
   C       19.34559         1.66577       -12.32728
   N       18.86700         1.25330       -11.36908
   C       20.21193         1.05855       -14.41352
   N       20.35997         0.16218       -15.11539
   C       21.62019         3.25330       -15.97915
   C       22.54758         3.86568       -16.78162
   C       23.17812         5.07427       -16.41334
   C       22.83633         5.70084       -15.17953
   C       23.46726         6.90770       -14.81489
   C       24.40294         7.46954       -15.63883
   C       24.74394         6.85662       -16.85542
   C       24.14537         5.68699       -17.23581
   H        4.83651        10.56773        -0.22741
   H        4.88810        12.06768         1.71573
   H        2.25387         8.10102         4.52816
   H        2.32361         9.66484         6.43752
   H        3.36429        11.88166         6.19028
   H        4.34679        12.56350         4.03944
   H        2.57643         4.81640         0.92220
   H        2.68533         3.00837        -1.06245
   H        6.86731         1.15976        -5.59572
   H       10.21524         4.41353        -5.13062
   H       12.09252         4.41064        -6.65827
   H        9.31932        -0.38506       -10.15718
   H        7.32713        -0.35834        -8.56921
   H       11.84685         1.80262       -10.55389
   H       17.44403         3.22365       -13.35511
   H       19.60649         5.66715       -11.19686
   H       21.15311         2.33248       -16.28874
   H       22.81502         3.41733       -17.72762
   H       23.19670         7.36912       -13.87832
   H       24.88814         8.39238       -15.35799
   H       25.48538         7.31827       -17.49063
   H       24.40680         5.21336       -18.17108
*
