# ORCA input file
# SCF done       -167.244727552461          0.000905823990
! CAM-B3LYP def2-SVP def2/J RIJCOSX Grid4 TightSCF
%maxcore 5000
%tddft
    Mode sTDDFT
    Ethresh 5.0
    maxcore 5000
end

%pal
  nprocs 6
  end
* xyz 0 1
   C        1.95927        -5.03061        -5.37096
   C        1.43185        -5.43629        -6.70764
   O        2.09898        -5.65561        -7.69430
   C       -0.02541        -5.54899        -6.53013
   C       -0.37176        -5.12519        -5.24607
   C        0.82376        -4.64802        -4.55691
   C        0.83283        -3.77574        -3.50152
   C        1.98802        -3.11755        -3.03123
   N        2.88414        -2.51475        -2.64266
   C       -0.32463        -3.34407        -2.81959
   N       -1.22721        -2.96648        -2.21960
   C       -1.70437        -5.16707        -4.81610
   C       -2.66273        -5.61634        -5.68672
   C       -2.34956        -6.02941        -7.00040
   C       -0.99523        -6.00463        -7.44447
   C       -0.68643        -6.42252        -8.75490
   C       -1.68129        -6.84292        -9.59404
   C       -3.01746        -6.86639        -9.16305
   C       -3.34533        -6.47047        -7.89535
   C        3.28847        -5.13814        -5.12225
   C        3.96511        -5.13532        -3.87558
   C        3.49855        -5.49153        -2.62516
   C        4.48732        -5.37028        -1.65125
   C        5.71505        -4.90841        -2.14091
   S        5.65964        -4.67542        -3.84350
   C        6.68513        -4.72968        -1.15181
   C        6.21736        -5.07901         0.09405
   S        4.54799        -5.62488         0.05568
   C        6.93216        -4.92217         1.32230
   C        6.74628        -5.53656         2.54059
   C        7.60598        -5.00055         3.55821
   C        7.72268        -5.37309         4.89546
   C        8.64520        -4.72243         5.70191
   C        9.46779        -3.70322         5.19348
   C        9.37594        -3.33806         3.87013
   C        8.45093        -3.98679         3.06264
   S        8.18213        -3.69440         1.37514
   C        8.76612        -5.09812         7.06036
   N        8.86547        -5.40248         8.16077
   C        5.86025        -6.65928         2.74634
   C        5.75328        -7.76669         1.94355
   C        4.83373        -8.69060         2.45165
   C        4.22812        -8.28691         3.64710
   S        4.80937        -6.73972         4.14616
   C        3.32167        -9.20707         4.16697
   C        3.22389       -10.33554         3.37442
   S        4.28401       -10.24709         1.97334
   C        2.49784       -11.53176         3.58577
   C        1.45435       -11.78117         4.41928
   C        1.16157       -13.19443         4.80003
   O        1.59132       -14.18198         4.24621
   C        0.30411       -13.10098         5.99413
   C       -0.02704       -11.76509         6.22457
   C        0.54816       -10.93790         5.16718
   C        0.11061        -9.69191         4.80219
   C        0.51973        -9.04520         3.61821
   N        0.80264        -8.49995         2.64867
   C       -0.86123        -8.95439         5.50929
   N       -1.63228        -8.30324         6.05582
   C       -0.81435       -11.40504         7.32570
   C       -1.25583       -12.39124         8.16918
   C       -0.94835       -13.75329         7.95814
   C       -0.14520       -14.13118         6.84269
   C        0.16432       -15.49130         6.63846
   C       -0.30534       -16.43996         7.50434
   C       -1.09838       -16.07385         8.60387
   C       -1.41324       -14.76150         8.82697
   H       -1.97253        -4.86371        -3.81719
   H       -3.69488        -5.65806        -5.37016
   H        0.34323        -6.40003        -9.07511
   H       -1.44469        -7.16057       -10.59850
   H       -3.78690        -7.20112        -9.84292
   H       -4.37267        -6.48738        -7.56137
   H        3.90888        -5.29514        -5.99972
   H        2.50357        -5.85223        -2.43796
   H        7.68192        -4.36938        -1.32968
   H        7.10590        -6.15708         5.30652
   H       10.17311        -3.21643         5.84932
   H       10.00572        -2.56434         3.46059
   H        6.33254        -7.91136         1.05042
   H        2.80171        -9.08138         5.09889
   H        2.87907       -12.40613         3.06596
   H       -1.05849       -10.37253         7.51650
   H       -1.85851       -12.13052         9.02717
   H        0.77462       -15.76033         5.79086
   H       -0.06794       -17.48157         7.34777
   H       -1.45821       -16.83978         9.27483
   H       -2.02331       -14.47766         9.67226
*
