# ORCA input file
# SCF done       -202.780438952896          0.000945778549
! CAM-B3LYP def2-SVP def2/J RIJCOSX Grid4 TightSCF
%maxcore 5000
%tddft
    Mode sTDDFT
    Ethresh 5.0
    maxcore 5000
end

%pal
  nprocs 6
  end
* xyz 0 1
   C        8.51710         2.75336         1.24282
   C        8.17625         4.14212         0.81391
   O        7.23646         4.45468         0.11498
   C        9.18427         5.00128         1.45401
   C       10.13386         4.20402         2.09626
   C        9.82937         2.79778         1.85524
   C       10.71448         1.76007         1.95552
   C       10.43752         0.46231         1.48297
   N       10.25070        -0.59633         1.07948
   C       12.02359         1.87552         2.46676
   N       13.09668         1.90905         2.87240
   C       11.18903         4.78719         2.80950
   C       11.27744         6.15408         2.85422
   C       10.34431         6.98911         2.20051
   C        9.26012         6.40799         1.48082
   C        8.32712         7.24510         0.83620
   C        8.46569         8.60445         0.89793
   C        9.53390         9.18234         1.60227
   C       10.45219         8.39403         2.24001
   C        7.59928         1.76911         1.08088
   C        7.55170         0.48704         1.69130
   C        6.93612        -0.65287         1.26495
   C        7.16463        -1.72002         2.23471
   N        7.87628        -1.20233         3.27031
   C        8.14960         0.14063         3.02064
   O        8.72757         0.86424         3.79590
   C        8.35342        -1.90140         4.43199
   C        6.64465        -2.87342         1.75049
   C        6.02280        -2.52672         0.43466
   O        5.37991        -3.22125        -0.30652
   N        6.25967        -1.15919         0.21074
   C        5.84030        -0.46782        -0.97795
   C        6.59248        -4.22674         2.26501
   C        6.90498        -5.31386         1.46717
   F        7.37140        -5.11592         0.22943
   C        6.81361        -6.64675         1.91367
   F        7.12853        -7.61045         1.03871
   C        6.36187        -6.99228         3.17458
   C        6.00928        -5.90402         3.99842
   C        6.15087        -4.55027         3.56497
   N        5.76416        -3.76596         4.58336
   N        5.43207        -4.60222         5.52946
   N        5.54927        -5.87147         5.25765
   C        4.96199        -4.15571         6.80470
   C        6.34972        -8.36979         3.62348
   C        5.42584        -9.12730         4.26105
   C        5.96807       -10.46762         4.46235
   N        7.22938       -10.50454         3.98141
   C        7.55548        -9.23983         3.45827
   O        8.63997        -8.95716         3.02541
   C        8.15177       -11.60704         4.01339
   C        5.04733       -11.23639         5.11308
   C        3.84245       -10.36142         5.27206
   O        2.75588       -10.64857         5.71463
   N        4.15344        -9.11239         4.73815
   C        3.23263        -8.00912         4.72237
   C        5.12720       -12.60280         5.49275
   C        4.41660       -13.26415         6.43893
   C        4.36401       -14.75569         6.40072
   O        5.09738       -15.47295         5.75551
   C        3.22666       -15.12074         7.26014
   C        2.73195       -13.97534         7.88717
   C        3.55022       -12.82712         7.51395
   C        3.65028       -11.65361         8.20909
   C        4.62101       -10.67133         7.93135
   N        5.41832        -9.86389         7.75344
   C        2.85132       -11.31456         9.32004
   N        2.23515       -10.98360        10.22988
   C        1.62240       -14.05105         8.73855
   C        1.03630       -15.27198         8.94845
   C        1.52006       -16.45200         8.34104
   C        2.64529       -16.38699         7.46863
   C        3.12114       -17.56619         6.86039
   C        2.50790       -18.76331         7.10871
   C        1.40004       -18.83357         7.96824
   C        0.91615       -17.70478         8.57086
   H       11.91043         4.17416         3.32448
   H       12.08286         6.62059         3.40302
   H        7.51056         6.79020         0.29815
   H        7.75126         9.24517         0.40295
   H        9.62456        10.25796         1.63706
   H       11.27504         8.83644         2.78271
   H        6.75751         2.03089         0.44636
   H        9.08065        -2.66301         4.14395
   H        7.51568        -2.37336         4.94649
   H        8.83182        -1.16889         5.08072
   H        5.04472         0.24593        -0.75469
   H        5.46410        -1.21630        -1.67465
   H        6.68527         0.05909        -1.42319
   H        4.02894        -3.60381         6.68592
   H        5.70103        -3.49799         7.26247
   H        4.80381        -5.03191         7.42905
   H        8.21000       -12.02035         5.02111
   H        9.12712       -11.22454         3.71378
   H        7.84607       -12.39002         3.31663
   H        2.31217        -8.34545         5.19776
   H        3.02386        -7.70027         3.69620
   H        3.65657        -7.16982         5.27493
   H        5.79384       -13.22552         4.90357
   H        1.22712       -13.16452         9.20704
   H        0.17514       -15.34805         9.59659
   H        3.97227       -17.50018         6.20123
   H        2.87304       -19.66637         6.64280
   H        0.93085       -19.78923         8.14967
   H        0.06382       -17.75655         9.23278
*
