# ORCA input file
# SCF done       -157.693686108399          0.000791507998
! CAM-B3LYP def2-SVP def2/J RIJCOSX Grid4 TightSCF
%maxcore 5000
%tddft
    Mode sTDDFT
    Ethresh 5.0
    maxcore 5000
end

%pal
  nprocs 6
  end
* xyz 0 1
   C        6.31020         3.91400        -0.70162
   C        6.51521         5.25568        -0.78989
   S        8.19059         5.61906        -0.99514
   C        8.62498         3.92483        -0.96605
  Cl       10.23752         3.42706        -1.12420
   C        7.51714         3.15116        -0.79965
   C        7.21535         1.71702        -0.69082
   O        7.99905         0.79946        -0.78573
   C        5.73375         1.65362        -0.51616
   C        5.19336         3.00448        -0.54225
   C        3.88694         3.40528        -0.42020
   C        3.53610         4.77113        -0.43936
   N        3.22734         5.87644        -0.45147
   C        2.76330         2.56841        -0.28144
   N        1.79806         1.95231        -0.18176
   C        4.96462         0.52645        -0.49079
   C        5.36987        -0.83664        -0.35575
   C        6.46264        -1.19872         0.40848
   C        6.86684        -2.53078         0.55045
   C        6.18055        -3.55424        -0.05681
   C        4.95752        -3.27999        -0.73585
   C        4.03626        -4.22952        -1.12882
  Si        3.01202        -3.34514        -2.40262
   C        3.33907        -1.72039        -1.55029
   C        4.54390        -1.88294        -0.91649
   C        6.68822        -4.93186         0.02153
   C        7.02633        -5.52461         1.23794
   F        6.84104        -4.84521         2.37951
   C        7.51724        -6.81917         1.30227
   F        7.76968        -7.35375         2.51078
   C        7.71496        -7.59001         0.15563
   C        7.37377        -6.99873        -1.06141
   C        6.87849        -5.70447        -1.12472
   F        6.59449        -5.17847        -2.32751
   F        7.53638        -7.68231        -2.19998
   C        8.20318        -8.97427         0.24254
   C        7.49631        -9.98757        -0.35666
   C        7.89852       -11.32207        -0.23460
   C        9.02107       -11.69504         0.47879
   C        9.77237       -10.67495         1.16674
   C       10.88353       -10.86871         1.94974
  Si       11.15407        -9.23760         2.82159
   C       10.29884        -8.34239         1.44137
   C        9.39349        -9.27281         0.96773
   C        9.39160       -13.07832         0.45997
   C       10.61448       -13.67390         0.46768
   C       10.68960       -15.13961         0.75693
   O        9.76028       -15.90986         0.81324
   C       12.11529       -15.39446         1.00150
   C       12.89632       -16.44312         1.38136
   S       14.57459       -15.95894         1.47041
   C       14.19821       -14.34465         0.98133
   C       12.86417       -14.19317         0.77111
   C       11.95830       -13.15084         0.32484
   C       12.35346       -11.96907        -0.25013
   C       13.70629       -11.57721        -0.25687
   N       14.80006       -11.22930        -0.23173
   C       11.51029       -11.09753        -0.96484
   N       10.88504       -10.38983        -1.61739
  Cl       12.41817       -18.02905         1.73969
   H        5.80586         6.05813        -0.75147
   H        3.89835         0.67368        -0.60201
   H        7.01774        -0.44117         0.93578
   H        7.75626        -2.74266         1.12400
   H        4.26468        -5.28199        -1.07604
   H        2.93900        -0.75357        -1.80391
   H        6.60798        -9.76260        -0.92704
   H        7.33962       -12.07910        -0.76473
   H       11.17354       -11.84919         2.29037
   H       10.10080        -7.28544         1.36737
   H        8.56280       -13.78142         0.44789
   H       14.98741       -13.62516         0.89086
*
