# ORCA input file
# SCF done       -200.426037425011          0.000717797259
! CAM-B3LYP def2-SVP def2/J RIJCOSX Grid4 TightSCF
%maxcore 5000
%tddft
    Mode sTDDFT
    Ethresh 5.0
    maxcore 5000
end

%pal
  nprocs 6
  end
* xyz 0 1
   C       -0.82535        -2.81650        -0.03508
   C       -1.40444        -3.97636        -0.48609
   C       -0.88442        -5.23234        -0.11074
   N       -0.46411        -6.25358         0.20082
   C       -2.53005        -4.05007        -1.32383
   N       -3.44490        -4.17679        -2.00714
   C       -1.20927        -1.45170        -0.28779
   C       -0.37808        -0.52219         0.37116
   C       -0.62047         0.84189         0.22741
   C       -1.67133         1.26549        -0.56044
   C       -2.48913         0.34684        -1.21066
   C       -2.26681        -1.00916        -1.08025
   C        0.67452        -1.13151         1.14610
   S        0.57504        -2.88464         1.00615
   C        1.61240        -0.46906         1.87402
   C        2.67992        -0.99855         2.63338
   C        3.05478        -2.30343         2.90435
   C        4.21865        -2.41204         3.67086
   C        4.70710        -3.70936         4.16064
   C        4.94433        -4.79307         3.30723
   C        5.26761        -6.03961         3.84803
   C        5.39389        -6.20041         5.20759
   C        5.20206        -5.12822         6.06657
   C        4.84471        -3.89360         5.55128
   O        4.59356        -2.78924         6.32044
   C        4.73063        -2.89102         7.71562
   O        4.88605        -4.75401         1.95102
   C        5.30716        -3.59942         1.25297
   C        4.74991        -1.16860         4.01136
   S        3.77667         0.12213         3.40079
   C        5.88882        -0.88916         4.82400
   C        7.00116        -1.74794         4.91590
   C        8.01085        -1.56964         5.91856
   N        8.99397        -2.48627         6.03161
   C        9.04637        -3.47393         5.19988
   C        8.11622        -3.57788         4.13370
   N        7.13412        -2.74565         4.01349
   F        8.24663        -4.52251         3.20370
   F       10.01270        -4.37506         5.36075
   C        8.01671        -0.47738         6.81469
   C        6.96793         0.45542         6.63805
   C        5.93225         0.25126         5.65120
   N        5.03423         1.23671         5.66141
   S        5.44789         2.31144         6.77762
   N        6.77331         1.58664         7.31757
   C        9.01725        -0.33550         7.81429
   C        9.07470         0.61833         8.81656
   C       10.19887         0.51919         9.63557
   C       10.37226         1.31889        10.85419
   C       10.59190         0.67686        12.08185
   C       10.77733         1.43110        13.23294
   C       10.74140         2.81211        13.15753
   C       10.51631         3.46217        11.96027
   C       10.32537         2.72110        10.79820
   O       10.14284         3.25823         9.56785
   C       10.30756         4.65209         9.41445
   O       10.60722        -0.68804        12.04465
   C       10.83895        -1.39275        13.23899
   C       11.05067        -0.51297         9.23758
   S       10.37669        -1.41068         7.90347
   C       12.32013        -0.90154         9.73612
   C       13.27525        -0.08965        10.25975
   C       14.53618        -0.48120        10.83823
   C       15.32885         0.60770        11.26071
   C       14.69754         1.87760        11.01104
   C       15.12051         3.14938        11.32274
   C       16.33586         3.47566        11.94338
   N       17.31467         3.79565        12.45340
   C       14.27807         4.23854        11.02804
   N       13.56100         5.10259        10.78584
   S       13.15657         1.66542        10.23223
   C       16.57127         0.38512        11.85036
   C       17.01352        -0.91240        12.01688
   C       16.23072        -1.98733        11.60760
   C       14.99664        -1.78191        11.02329
   H        0.00709         1.56381         0.72577
   H       -1.86009         2.32226        -0.67392
   H       -3.30564         0.69542        -1.82365
   H       -2.90353        -1.71548        -1.58682
   H        1.55661         0.61144         1.86889
   H        2.49913        -3.16756         2.58722
   H        5.43038        -6.85818         3.16661
   H        5.66043        -7.16347         5.61502
   H        5.31929        -5.27259         7.12811
   H        5.75827        -3.13809         8.00387
   H        4.04429        -3.63230         8.13622
   H        4.47776        -1.90581         8.10586
   H        5.98173        -2.99192         1.85726
   H        4.45163        -2.99554         0.93522
   H        5.83554        -3.95855         0.36790
   H        8.30868         1.35905         8.94822
   H       10.95339         0.95716        14.18455
   H       10.89625         3.39326        14.05387
   H       10.50737         4.53843        11.93609
   H        9.52490         5.20794         9.94000
   H       10.22198         4.83718         8.34507
   H       11.29135         4.97748         9.76522
   H       10.06803        -1.18557        13.98775
   H       11.82491        -1.16380        13.65724
   H       10.80067        -2.44663        12.96715
   H       12.56470        -1.95030         9.62471
   H       17.17981         1.21506        12.17096
   H       17.97586        -1.09234        12.47041
   H       16.59276        -2.99453        11.74851
   H       14.39543        -2.62110        10.71041
*
