# ORCA input file
# SCF done       -139.907273053884          0.000726913266
! CAM-B3LYP def2-SVP def2/J RIJCOSX Grid4 TightSCF
%maxcore 5000
%tddft
    Mode sTDDFT
    Ethresh 5.0
    maxcore 5000
end

%pal
  nprocs 6
  end
* xyz 0 1
   C       -2.40725        -2.05555        -5.45832
   C       -1.77039        -3.17570        -4.99253
   C       -0.86918        -4.02375        -5.80968
   O       -1.10779        -4.29489        -6.95104
   O        0.26248        -4.43295        -5.21509
   C       -2.21739        -3.25347        -3.62813
   N       -3.02070        -2.24083        -3.37276
   O       -3.12681        -1.50098        -4.49296
   C       -1.97494        -4.23940        -2.61203
   C       -2.41401        -4.14802        -1.31268
   C       -2.07583        -5.28239        -0.57053
   C       -1.38193        -6.24747        -1.30727
   S       -1.14501        -5.75005        -2.93800
   C       -1.05523        -7.37334        -0.54173
   C       -1.50873        -7.26004         0.77753
   S       -2.33639        -5.75794         1.08392
   C       -1.20661        -8.36803         1.56880
   C       -0.51761        -9.33034         0.86132
   S       -0.23699        -8.86180        -0.80598
   C       -0.06383       -10.58997         1.37065
   C        0.68077       -11.50410         0.63737
   F        1.01982       -11.22003        -0.63313
   C        1.12009       -12.73632         1.13962
   F        1.83631       -13.50515         0.29948
   C        0.85535       -13.18788         2.42543
   C        0.09256       -12.27818         3.20085
   C       -0.34850       -11.01947         2.69173
   N       -1.03474       -10.41613         3.67277
   N       -0.99454       -11.25676         4.66765
   N       -0.34980       -12.37081         4.46273
   C       -1.63142       -10.97087         5.91622
   C        1.29888       -14.44871         2.94168
   C        1.03769       -14.94713         4.20054
   C        1.61512       -16.20236         4.39023
   C        2.32348       -16.66855         3.27652
   S        2.27157       -15.54372         1.97692
   C        2.89273       -17.92783         3.50217
   C        2.61150       -18.41343         4.78505
   S        1.64179       -17.31717         5.72777
   C        3.16286       -19.67042         5.04394
   C        3.86637       -20.14304         3.95742
   S        3.86316       -19.02937         2.60293
   C        4.61094       -21.35670         3.83255
   C        4.66530       -22.53236         4.57232
   C        3.88862       -23.00696         5.73191
   O        4.35238       -23.70023         6.59094
   O        2.58952       -22.63960         5.76175
   C        5.69106       -23.27063         3.92385
   N        6.16624       -22.61873         2.90647
   O        5.51613       -21.43672         2.84223
   H       -2.39355        -1.58227        -6.41968
   H        0.35180        -4.13281        -4.30075
   H       -2.95087        -3.29474        -0.94462
   H       -1.46712        -8.48306         2.60320
   H       -2.06106        -9.97413         5.85482
   H       -0.90030       -11.01829         6.72328
   H       -2.41456       -11.70466         6.10975
   H        0.45741       -14.41269         4.92785
   H        3.07736       -20.18125         5.98531
   H        2.31599       -22.14151         4.98071
   H        6.05361       -24.24418         4.18171
*
