# ORCA input file
# SCF done       -197.178244023542          0.000801551616
! CAM-B3LYP def2-SVP def2/J RIJCOSX Grid4 TightSCF
%maxcore 5000
%tddft
    Mode sTDDFT
    Ethresh 5.0
    maxcore 5000
end

%pal
  nprocs 6
  end
* xyz 0 1
   C       -6.96133        -2.98315         3.22902
   C       -5.73416        -3.09184         3.87594
   C       -4.64581        -3.86888         3.33601
   N       -3.47733        -3.92345         4.01070
   C       -3.37038        -3.27533         5.13524
   C       -4.44056        -2.52010         5.66581
   N       -5.58246        -2.43193         5.05366
   C       -4.78197        -4.56757         2.10811
   C       -6.03417        -4.43965         1.47016
   C       -7.11404        -3.65458         2.02574
   N       -8.20145        -3.68426         1.24018
   S       -7.89248        -4.59264        -0.03930
   N       -6.38166        -5.00329         0.31126
   C       -3.75199        -5.35107         1.50996
   C       -2.47515        -5.62345         1.98315
   C       -1.72015        -6.40783         1.12397
   C       -2.42900        -6.74775        -0.02900
   S       -4.02325        -6.10813        -0.04569
   C       -1.73410        -7.52206        -0.98765
   C       -0.40921        -7.84072        -0.68872
  Si        0.01612        -7.14794         1.01993
   C        0.33976        -8.53802         2.25682
   C        1.13604        -8.32090         3.37713
   C        1.38256        -9.33791         4.28138
   C        0.83361       -10.59322         4.07913
   C        0.03734       -10.82475         2.96982
   C       -0.20634        -9.80505         2.06822
   C        1.37884        -5.84499         1.04497
   C        1.08624        -4.48455         1.06826
   C        2.09814        -3.54219         1.10931
   C        3.42227        -3.94662         1.12731
   C        3.72920        -5.29732         1.10422
   C        2.71485        -6.23591         1.06396
   C        0.18468        -8.58313        -1.70386
   C       -0.67321        -8.83211        -2.75596
   S       -2.24873        -8.14528        -2.50617
   C       -0.40881        -9.55245        -3.96436
   N       -1.42672        -9.72970        -4.80228
   C       -1.14309       -10.38679        -5.92451
   N        0.07809       -10.84487        -6.23774
   C        1.00387       -10.62365        -5.32873
   N        0.83744        -9.99959        -4.17998
   C       -2.20819       -10.62463        -6.84868
   C       -3.54511       -10.31376        -6.68882
   C       -4.32147       -10.70345        -7.77288
   C       -3.55406       -11.31267        -8.76773
   S       -1.88539       -11.41087        -8.36243
   C       -4.24488       -11.74558        -9.92358
   C       -5.62557       -11.53424        -9.93056
  Si       -6.13652       -10.71736        -8.30581
   C       -6.92340        -9.01626        -8.50613
   C       -7.30227        -8.52570        -9.75160
   C       -7.91246        -7.28961        -9.87053
   C       -8.15187        -6.52286        -8.74282
   C       -7.77975        -6.99803        -7.49579
   C       -7.17282        -8.23479        -7.38109
   C       -7.16305       -11.83918        -7.18435
   C       -6.61170       -12.99598        -6.63901
   C       -7.35772       -13.81715        -5.81405
   C       -8.67253       -13.49434        -5.52084
   C       -9.23514       -12.34807        -6.05665
   C       -8.48481       -11.52896        -6.88094
   C       -6.20649       -11.98044       -11.10755
   C       -5.29409       -12.52502       -12.00249
   S       -3.66940       -12.49460       -11.36415
   C       -5.56023       -13.05463       -13.29435
   C       -4.51740       -13.59026       -14.08732
   C       -4.74710       -14.13094       -15.39914
   N       -3.70514       -14.62972       -16.11256
   C       -2.52239       -14.59829       -15.57477
   C       -2.29521       -14.06682       -14.28357
   N       -3.27369       -13.58204       -13.57462
   C       -6.02116       -14.15216       -15.95573
   C       -7.06230       -13.63124       -15.19911
   C       -6.84747       -13.08137       -13.87378
   N       -7.98696       -12.63595       -13.33817
   S       -9.18551       -12.88203       -14.37726
   N       -8.35151       -13.55963       -15.56113
   H       -7.75295        -2.39462         3.65921
   H       -2.41844        -3.34339         5.64498
   H       -4.34431        -1.98660         6.60217
   H       -2.13246        -5.24425         2.92727
   H        1.56952        -7.34408         3.53660
   H        2.00490        -9.15315         5.14512
   H        1.02694       -11.38929         4.78336
   H       -0.39167       -11.80294         2.80726
   H       -0.82463        -9.99127         1.20174
   H        0.05444        -4.16443         1.05798
   H        1.85432        -2.48974         1.12862
   H        4.21357        -3.21192         1.16015
   H        4.76110        -5.61728         1.11902
   H        2.95828        -7.28857         1.05081
   H        1.19788        -8.94087        -1.70237
   H        2.00054       -10.98985        -5.54614
   H       -3.90878        -9.82492        -5.80357
   H       -7.11724        -9.12045       -10.63417
   H       -8.20269        -6.92293       -10.84461
   H       -8.62761        -5.55731        -8.83463
   H       -7.96464        -6.40304        -6.61301
   H       -6.88854        -8.60448        -6.40649
   H       -5.58542       -13.24947        -6.86381
   H       -6.91477       -14.71000        -5.39694
   H       -9.25660       -14.13446        -4.87572
   H      -10.26029       -12.09236        -5.83036
   H       -8.92588       -10.63303        -7.29386
   H       -7.25542       -11.92572       -11.33472
   H       -1.70917       -15.00142       -16.16361
   H       -1.30977       -14.04359       -13.83998
   H       -6.18523       -14.55776       -16.93889
*
