# ORCA input file
# SCF done       -178.129082461186          0.000515111870
! CAM-B3LYP def2-SVP def2/J RIJCOSX Grid4 TightSCF
%maxcore 5000
%tddft
    Mode sTDDFT
    Ethresh 5.0
    maxcore 5000
end

%pal
  nprocs 6
  end
* xyz 0 1
   C       -6.62228         2.15119        -3.75703
   C       -6.80777         2.40373        -5.08741
   F       -7.08451         3.64557        -5.50465
   C       -6.71181         1.36494        -6.03532
   F       -6.89952         1.64146        -7.33235
   C       -6.43125         0.08721        -5.63923
   C       -6.23596        -0.20478        -4.27545
   C       -6.33269         0.84434        -3.31578
   C       -6.14394         0.57488        -1.94058
   C       -5.87024        -0.70541        -1.53640
   C       -5.77875        -1.74581        -2.50273
   C       -5.95119        -1.51696        -3.83722
   C       -5.49794        -3.01879        -1.81739
   O       -5.33459        -4.10182        -2.34773
   C       -5.46332        -2.71076        -0.38042
   C       -5.64469        -1.27957        -0.21136
   C       -5.59562        -0.56680         0.95800
   C       -5.35756        -1.10076         2.24227
   N       -5.16815        -1.45236         3.31911
   C       -5.76566         0.83230         1.03653
   N       -5.89549         1.96483         1.16980
   C       -5.33944        -3.62782         0.62953
   C       -5.18827        -5.02469         0.58141
   C       -5.15605        -5.79015         1.74967
   C       -5.01835        -7.13958         1.48545
   C       -4.92437        -7.43516         0.11129
   S       -5.03018        -6.01728        -0.86239
   C       -4.79429        -8.79769        -0.15424
   C       -4.79753        -9.54645         1.00593
   S       -4.94784        -8.57365         2.45232
   C       -4.72044       -10.95964         1.07781
   N       -4.54687       -11.71988         0.03451
   C       -4.55436       -13.00407         0.38102
   C       -4.74596       -13.28732         1.74706
   S       -4.90747       -11.82241         2.62565
   N       -4.78411       -14.57366         2.08631
   C       -4.62317       -15.33422         1.04508
   S       -4.39876       -14.46945        -0.50059
   C       -4.65683       -16.74852         1.08340
   C       -4.46396       -17.62299         0.03354
   C       -4.61727       -18.94601         0.44320
   C       -4.92736       -19.08518         1.80767
   S       -5.02170       -17.54952         2.59412
   C       -5.08572       -20.40382         2.21798
   C       -4.90350       -21.29757         1.17491
   S       -4.54423       -20.47555        -0.33789
   C       -5.05238       -22.70162         1.14888
   C       -5.10781       -23.59800         2.17350
   C       -5.72537       -24.93047         1.91486
   O       -5.98395       -25.40915         0.83597
   C       -6.00118       -25.49505         3.25090
   C       -6.67256       -26.63789         3.57692
   C       -6.85067       -26.96413         4.94010
   C       -6.33179       -26.09263         5.94150
   C       -6.52305       -26.41834         7.29930
   C       -7.19389       -27.55732         7.64656
   C       -7.70367       -28.42022         6.65536
   C       -7.53637       -28.13104         5.33005
   F       -8.35724       -29.52934         7.02498
   F       -7.37464       -27.86509         8.93709
   C       -5.63197       -24.92058         5.57313
   C       -5.46318       -24.62998         4.24597
   C       -4.77264       -23.52810         3.57825
   C       -3.79692       -22.75156         4.14749
   C       -2.97244       -21.87704         3.41199
   N       -2.26530       -21.17707         2.84000
   C       -3.45383       -22.80255         5.51417
   N       -3.15509       -22.79612         6.62221
   H       -6.69909         2.95811        -3.04509
   H       -6.36142        -0.69712        -6.37656
   H       -6.22702         1.39128        -1.24191
   H       -5.87556        -2.32680        -4.54677
   H       -5.38325        -3.24646         1.64271
   H       -5.23736        -5.35884         2.73092
   H       -4.71037        -9.24238        -1.12760
   H       -4.22991       -17.30659        -0.96621
   H       -5.37069       -20.69400         3.21225
   H       -5.23050       -23.13286         0.16771
   H       -7.06456       -27.28315         2.80564
   H       -6.13588       -25.77101         8.07059
   H       -7.93290       -28.80119         4.58350
   H       -5.25583       -24.27561         6.35125
*
