# ORCA input file
# SCF done       -199.608483527236          0.000738185656
! CAM-B3LYP def2-SVP def2/J RIJCOSX Grid4 TightSCF
%maxcore 5000
%tddft
    Mode sTDDFT
    Ethresh 5.0
    maxcore 5000
end

%pal
  nprocs 6
  end
* xyz 0 1
   C      -14.27981         4.51656         1.25094
   C      -13.49550         4.57374         2.36899
   F      -12.69649         5.63401         2.57995
   C      -13.50003         3.52173         3.30350
   F      -12.71028         3.60149         4.38871
   C      -14.29217         2.42553         3.10922
   C      -15.11682         2.34011         1.97119
   C      -15.10898         3.40065         1.02050
   C      -15.91395         3.32695        -0.14279
   C      -16.70328         2.22711        -0.34474
   C      -16.72079         1.18712         0.62367
   C      -15.95544         1.22406         1.75093
   C      -17.63166         0.12158         0.16566
   O      -17.95549        -0.86629         0.80555
   C      -18.08744         0.51425        -1.16952
   C      -17.57996         1.83305        -1.45243
   C      -17.78970         2.58046        -2.58816
   C      -18.56332         2.18562        -3.69755
   N      -19.15780         1.93653        -4.64892
   C      -17.23702         3.85868        -2.79949
   N      -16.81801         4.90405        -3.02662
   C      -18.97443        -0.20785        -1.96535
   C      -19.26304        -1.56744        -1.96015
   C      -18.50434        -2.62702        -1.47360
   C      -18.88738        -3.99087        -1.47274
   C      -17.95010        -4.84058        -0.95223
   C      -16.77746        -4.17944        -0.54022
   S      -16.89448        -2.47441        -0.86198
   C      -15.66438        -4.63003         0.16205
   C      -15.32330        -5.90689         0.64163
   C      -14.18213        -5.91872         1.39861
   C      -13.57583        -4.65284         1.54962
   S      -14.48063        -3.45051         0.66459
   C      -12.46641        -4.33612         2.31080
   C      -11.92582        -3.06466         2.47448
   C      -10.83588        -2.72683         3.29428
   F      -10.18855        -3.65625         4.00474
   C      -10.49808        -1.38758         3.29804
   F       -9.45903        -0.91438         3.99334
   C      -11.29899        -0.59257         2.46102
   S      -12.50007        -1.61361         1.69222
   C      -11.28601         0.75574         2.11168
   C      -10.59809         1.82591         2.65523
   C      -10.62534         3.12958         2.10427
   C       -9.94639         4.06031         2.83496
   C       -9.36050         3.53215         4.00255
   S       -9.66825         1.82397         4.13005
   C       -8.61914         4.21209         4.96157
   C       -8.28109         5.58014         4.97947
   C       -7.51980         5.94014         6.05483
   C       -7.22775         4.87435         6.93378
   S       -7.96164         3.39829         6.35658
   C       -6.48601         4.95084         8.09945
   C       -6.23616         3.85741         8.91967
   C       -5.54442         3.81597        10.11205
   C       -5.04408         2.50676        10.59492
   O       -5.34017         1.41282        10.16660
   C       -4.07902         2.82607        11.66737
   C       -3.27531         1.98315        12.37730
   C       -2.39623         2.52370        13.34321
   C       -2.36561         3.93330        13.54642
   C       -1.48143         4.46769        14.50441
   C       -0.66903         3.64117        15.22918
   C       -0.70211         2.24736        15.02899
   C       -1.54726         1.69856        14.10548
   F        0.10611         1.46001        15.75388
   F        0.17053         4.15220        16.14098
   C       -3.21728         4.78085        12.79913
   C       -4.06848         4.23412        11.87774
   C       -5.07285         4.84176        11.00036
   C       -5.58650         6.10797        11.16490
   C       -6.74570         6.59301        10.52874
   N       -7.70893         7.03018        10.08073
   C       -5.07555         7.04836        12.08063
   N       -4.68614         7.86574        12.78780
   H      -14.26262         5.33190         0.54448
   H      -14.28707         1.62730         3.83463
   H      -15.87693         4.14480        -0.84393
   H      -15.98286         0.41123         2.46017
   H      -19.54018         0.36830        -2.68803
   H      -20.16808        -1.86116        -2.47908
   H      -19.85462        -4.30153        -1.82668
   H      -18.08440        -5.90137        -0.83969
   H      -15.92251        -6.77513         0.43441
   H      -13.77195        -6.79802         1.86294
   H      -11.97965        -5.13718         2.85186
   H      -11.94165         1.00563         1.28502
   H      -11.13863         3.33511         1.18108
   H       -9.87301         5.09907         2.57067
   H       -8.60163         6.25891         4.21035
   H       -7.16782         6.93773         6.24722
   H       -6.07331         5.91835         8.34384
   H       -6.54893         2.88319         8.55341
   H       -3.30860         0.91816        12.20486
   H       -1.44567         5.53270        14.67290
   H       -1.56088         0.62927        13.96339
   H       -3.16684         5.84369        12.97278
*
