# ORCA input file
# SCF done       -188.349583459247          0.000991719249
! CAM-B3LYP def2-SVP def2/J RIJCOSX Grid4 TightSCF
%maxcore 5000
%tddft
    Mode sTDDFT
    Ethresh 5.0
    maxcore 5000
end

%pal
  nprocs 6
  end
* xyz 0 2
   C       -7.17609        -0.37712         0.64731
   C       -7.14055        -0.63221        -0.66708
   C       -7.61176         0.20115        -1.73667
   C       -7.44101        -0.32270        -2.96962
   C       -6.82486        -1.60668        -2.98244
   S       -6.46882        -2.12400        -1.34723
   C       -6.52631        -2.37665        -4.07982
   C       -6.75720        -2.07583        -5.44555
   C       -6.34465        -3.04667        -6.29969
   C       -5.76262        -4.17904        -5.66785
   S       -5.76240        -3.95178        -3.92948
   C       -5.27387        -5.28288        -6.31564
   C       -4.69561        -6.42692        -5.74095
   S       -4.49288        -6.62975        -4.02513
   C       -3.75968        -8.20051        -4.22924
   C       -3.66923        -8.52711        -5.57797
   C       -4.19927        -7.54215        -6.41833
   C       -4.24264        -7.67676        -7.91376
   C       -3.97771        -9.10872        -8.31646
   O       -4.66792        -9.75092        -9.05854
   C       -2.74930        -9.63570        -7.59167
   O       -1.68985        -9.85372        -8.11097
   C       -3.02553        -9.77484        -6.11091
   C       -3.39416        -8.89205        -3.04516
   C       -2.98956       -10.17502        -2.91739
   N       -2.68660       -10.71196        -1.69741
   C       -2.30845       -11.98645        -1.45604
   S       -2.12114       -13.12796        -2.74834
   C       -1.68749       -14.34591        -1.58668
   N       -1.38762       -15.61686        -2.06647
   O       -1.07955       -16.47405        -1.25330
   O       -1.46138       -15.78141        -3.27594
   C       -1.69299       -13.89214        -0.29454
   C       -2.04519       -12.53359        -0.18475
   C       -2.13640       -11.78015         1.02716
   C       -1.99801       -12.30048         2.27366
   C       -2.09208       -11.57720         3.48199
   C       -2.47092       -10.24995         3.74310
   O       -2.73553        -9.41603         2.70198
   C       -3.43014        -8.22374         3.01171
   C       -2.75525        -7.44187         4.12294
   S       -2.95306        -8.33341         5.70251
   C       -2.57490        -9.93314         5.10318
   C       -2.32427       -11.01987         5.96417
   S       -1.80519       -12.41703         4.99685
   N       -0.09011       -12.16206         5.17845
   C        0.75322       -13.04934         4.40227
   C       -2.41878       -11.18764         7.33725
   C       -2.78303       -10.23873         8.27255
   C       -2.80311       -10.54068         9.62966
   C       -3.16332        -9.66300        10.63693
   C       -3.17728        -9.94086        12.04725
   C       -2.78462       -11.10316        12.67633
   C       -2.82695       -11.30230        14.06877
   N       -2.83660       -11.53134        15.19497
   C       -2.27328       -12.24736        12.03717
   N       -1.83957       -13.21714        11.59576
   C       -3.66885        -8.74616        12.73301
   C       -3.93075        -7.74715        11.76536
   C       -3.61858        -8.28024        10.41974
   O       -3.73002        -7.67364         9.37018
   C       -4.40143        -6.50127        12.09483
   C       -4.62730        -6.22508        13.44852
   C       -4.36457        -7.22890        14.40736
   C       -3.88684        -8.49127        14.07285
   S       -4.71234        -6.67928        16.02007
   C       -5.19843        -5.12865        15.38935
   C       -5.10654        -5.02510        14.04301
  Br       -5.78186        -3.79007        16.56875
   H       -7.59398         0.54262         1.01659
   H       -6.79385        -1.07451         1.36985
   H       -8.05806         1.15753        -1.52984
   H       -7.73561         0.16458        -3.88201
   H       -7.21908        -1.15542        -5.75414
   H       -6.43721        -2.99544        -7.37034
   H       -5.34009        -5.27066        -7.39517
   H       -3.46219        -7.05280        -8.36522
   H       -5.20936        -7.36248        -8.31487
   H       -2.08689        -9.98458        -5.59230
   H       -3.69873       -10.62982        -5.98147
   H       -3.49093        -8.30319        -2.14044
   H       -2.89811       -10.85737        -3.74457
   H       -2.77583       -10.10483        -0.89087
   H       -1.44195       -14.53653         0.52709
   H       -2.33145       -10.72273         0.94636
   H       -1.80222       -13.35752         2.38893
   H       -4.46575        -8.45535         3.29436
   H       -3.43284        -7.64924         2.08140
   H       -3.22294        -6.46997         4.26058
   H       -1.69120        -7.31877         3.91915
   H        0.12887       -12.21480         6.16911
   H        0.50804       -12.91899         3.34929
   H        0.64852       -14.10540         4.67090
   H        1.78781       -12.74821         4.55762
   H       -2.17398       -12.17768         7.70761
   H       -3.06047        -9.24466         7.96259
   H       -2.51567       -11.54525         9.91174
   H       -4.59001        -5.76077        11.33343
   H       -3.70411        -9.22145        14.84294
   H       -5.36529        -4.14083        13.48978
*
