# ORCA input file
# SCF done       -263.439090298694          0.000789199401
! CAM-B3LYP def2-SVP def2/J RIJCOSX Grid4 TightSCF
%maxcore 5000
%tddft
    Mode sTDDFT
    Ethresh 5.0
    maxcore 5000
end

%pal
  nprocs 6
  end
* xyz 0 1
   C       12.98419       -11.98533        -2.85689
   C       14.09066       -12.77514        -2.80397
   S       15.11291       -12.51105        -4.17015
   C       14.02806       -11.30920        -4.82783
  Cl       14.36754       -10.51682        -6.28637
   C       12.94797       -11.14593        -4.01401
   C       11.73244       -10.32503        -4.00363
   O       11.41060        -9.51509        -4.84595
   C       11.01552       -10.71501        -2.75631
   C       11.79615       -11.73606        -2.06372
   C       11.52402       -12.38027        -0.88515
   C       12.40862       -13.35037        -0.36615
   N       13.11258       -14.14226         0.07414
   C       10.40385       -12.20081        -0.04878
   N        9.52986       -12.12128         0.69212
   C        9.82337       -10.25060        -2.27244
   C        8.91964        -9.27719        -2.75269
   C        8.93381        -8.45937        -3.85684
   C        7.81735        -7.60929        -3.95163
   C        7.55521        -6.64189        -4.95068
   C        8.48752        -6.35739        -6.01977
   C        8.19915        -6.06437        -7.32466
   C        9.35323        -5.80087        -8.08957
   C       10.52420        -5.87100        -7.38875
   S       10.20643        -6.28246        -5.74221
   C       11.91143        -5.65716        -7.87077
  Cl        9.27597        -5.42255        -9.76749
   C        6.35076        -5.96037        -4.84166
   C        5.42364        -6.16731        -3.78682
   C        5.69944        -7.10593        -2.77044
   C        6.89048        -7.81628        -2.89321
   S        7.46792        -9.01931        -1.78482
   C        4.81685        -7.31479        -1.64127
   C        4.52427        -8.49085        -1.01044
   C        3.66102        -8.32086         0.09318
   C        3.29564        -7.02748         0.33225
   S        4.02372        -5.98320        -0.83862
   C        2.41041        -6.48766         1.39361
  Cl        3.12317        -9.64759         1.04847
   C        4.28107        -5.34774        -3.92247
   C        4.32813        -4.51141        -5.00442
   S        5.79783        -4.71602        -5.92976
   C        3.33875        -3.56993        -5.40220
   C        2.11309        -3.34661        -4.80248
   C        1.39177        -2.34450        -5.45069
   C        2.07726        -1.79897        -6.54834
   S        3.60348        -2.52391        -6.78535
   C        1.26454        -0.79096        -7.13088
   C        0.06417        -0.70800        -6.40681
   C        0.10495        -1.67754        -5.32405
   C       -0.85282        -1.90806        -4.38095
   C       -0.68365        -2.87027        -3.36314
   N       -0.54273        -3.64721        -2.53151
   C       -2.07060        -1.19551        -4.35682
   N       -3.06090        -0.61840        -4.33288
   C       -0.80397         0.26516        -6.90604
   C       -0.26853         0.92502        -7.99325
   S        1.33018         0.33028        -8.41581
   C       -0.85618         1.97841        -8.74497
   C       -0.28575         2.69965        -9.75581
   C       -1.13430         3.69416       -10.29254
   C       -0.85886         4.59355       -11.34337
   C        0.37133         4.55795       -12.10608
   C        1.06801         5.61234       -12.62530
   C        2.17733         5.20756       -13.39789
   C        2.33973         3.85563       -13.49053
   S        1.09935         3.04987       -12.59388
   C        3.37397         3.09183       -14.23210
  Cl        3.22956         6.33865       -14.15676
   C       -1.86322         5.50385       -11.65192
   C       -3.13033         5.52068       -11.01479
   C       -3.41867         4.59602        -9.98732
   C       -2.39079         3.72717        -9.63600
   S       -2.48824         2.50458        -8.39815
   C       -4.71589         4.51551        -9.35116
   C       -4.99645         4.24934        -8.03988
   C       -6.38133         4.17762        -7.78137
   C       -7.17134         4.36713        -8.87951
   S       -6.18977         4.66110       -10.27235
   C       -8.65241         4.35580        -8.97342
  Cl       -7.00696         3.87005        -6.20801
   C       -3.96151         6.53774       -11.53129
   C       -3.40631         7.23947       -12.56894
   S       -1.76431         6.71433       -12.89485
   C       -4.00425         8.33846       -13.24020
   C       -3.67760         8.88028       -14.44129
   C       -4.09160        10.28513       -14.75082
   O       -4.91642        10.93988       -14.16129
   C       -3.22456        10.67464       -15.87080
   C       -2.96753        11.80043       -16.59425
   S       -1.75217        11.48443       -17.81068
   C       -1.61560         9.82932       -17.33599
   C       -2.44789         9.54697       -16.30021
   C       -2.83309         8.38963       -15.51571
   C       -2.64512         7.08742       -15.89406
   C       -1.83894         6.75092       -16.99986
   N       -1.16921         6.46604       -17.88685
   C       -3.30409         5.99443       -15.29463
   N       -3.87536         5.09368       -14.87074
  Cl       -3.66731        13.33407       -16.42598
   H       14.38352       -13.49385        -2.06495
   H        9.49169       -10.69803        -1.34236
   H        9.72926        -8.49241        -4.57662
   H        7.21118        -6.07813        -7.74576
   H       11.90905        -5.51662        -8.94885
   H       12.53484        -6.51520        -7.62311
   H       12.35106        -4.77686        -7.40170
   H        4.87188        -9.45427        -1.33339
   H        2.03784        -7.30327         2.00802
   H        1.56533        -5.95796         0.95493
   H        2.95297        -5.78627         2.02702
   H        3.44693        -5.37643        -3.24840
   H        1.77169        -3.88974        -3.94141
   H       -1.77568         0.49685        -6.50833
   H        0.72112         2.52569       -10.08863
   H        0.83458         6.64373       -12.43739
   H        4.21156         3.74331       -14.47010
   H        2.96416         2.70138       -15.16446
   H        3.72807         2.24963       -13.64095
   H       -4.25465         4.14601        -7.27016
   H       -9.07680         4.02932        -8.02741
   H       -8.98142         3.68352        -9.76437
   H       -9.03038         5.35231        -9.20257
   H       -4.95346         6.74202       -11.17259
   H       -4.77257         8.86544       -12.68272
   H       -0.92479         9.18808       -17.84652
*
