# ORCA input file
# SCF done       -213.913022510197          0.000406413412
! CAM-B3LYP def2-SVP def2/J RIJCOSX Grid4 TightSCF
%maxcore 5000
%tddft
    Mode sTDDFT
    Ethresh 5.0
    maxcore 5000
end

%pal
  nprocs 6
  end
* xyz 0 1
   C        5.21637         7.67562         0.91279
   C        4.98464         8.82499         0.20911
   F        4.97566        10.00524         0.85442
   C        4.75033         8.82644        -1.17271
   C        4.75440         7.63598        -1.84485
   C        4.98475         6.42120        -1.16772
   C        5.21848         6.44003         0.23771
   C        5.43672         5.23215         0.94163
   C        5.40984         4.04530         0.26235
   C        5.18723         4.03555        -1.14456
   C        4.98126         5.18474        -1.85054
   C        5.24715         2.64779        -1.62816
   O        5.00034         2.23269        -2.73955
   C        5.69527         1.83862        -0.45917
   C        5.54859         2.66109         0.71842
   C        5.29052         2.25171         2.00192
   C        5.07627         0.92345         2.41710
   N        4.79740        -0.11164         2.83183
   C        5.01800         3.14849         3.05668
   N        4.77449         3.82863         3.94893
   C        6.16772         0.58802        -0.71857
   C        6.82782        -0.38850         0.06742
   C        6.74111        -1.70529        -0.35570
   C        7.04507        -2.80667         0.42491
   C        7.77716        -2.65883         1.68400
   C        8.12094        -1.45919         2.21151
   S        7.67889         0.04839         1.53101
   C        8.02107        -3.98490         2.13487
   C        7.46774        -4.90290         1.23277
   C        7.64435        -6.23791         1.65468
   C        8.31629        -6.29972         2.83359
   S        8.75056        -4.75307         3.48066
   C        6.82020        -4.18727         0.17271
   C        6.05748        -4.75044        -0.87208
   C        5.07379        -4.05747        -1.52247
   C        4.39383        -4.46897        -2.68234
   N        4.58780        -5.63594        -3.29757
   C        3.85679        -5.58508        -4.41836
   C        3.15488        -4.29576        -4.55444
   C        2.39513        -4.24927        -5.81435
   O        1.74107        -3.32983        -6.26352
   C        2.65403        -5.57506        -6.39481
   C        3.55120        -6.35570        -5.52164
   N        3.79974        -7.57249        -6.05519
   C        3.12221        -7.59723        -7.18254
   C        2.38631        -6.38621        -7.45475
   C        3.46705        -3.57489        -3.43159
   C        3.09358        -2.26536        -3.01658
   C        2.45502        -1.36631        -3.80142
   C        2.14787        -0.02807        -3.39325
   C        2.15937         0.41763        -2.09019
   C        1.93524         1.73162        -1.69537
   C        1.78086         2.80010        -2.68128
   C        1.67124         2.57953        -4.01495
   S        1.75610         1.03208        -4.72713
   C        1.79603         4.01393        -1.94061
   C        1.96437         3.73412        -0.58520
   C        2.00475         4.90537         0.20320
   C        1.86682         6.02228        -0.55753
   S        1.67916         5.70182        -2.24880
   C        2.00198         2.30594        -0.39813
   C        2.15830         1.70287         0.85957
   C        1.86053         0.42213         1.25966
   C        0.94366        -0.45504         0.66807
   C        0.71670        -1.74871         1.09237
   C       -0.59756        -2.40906         0.94840
   O       -1.53360        -2.04420         0.27008
   C       -0.53858        -3.58360         1.85207
   C       -1.51632        -4.47526         2.17969
   C       -1.22627        -5.51154         3.09909
   C        0.08019        -5.60684         3.66059
   C        0.35589        -6.63706         4.57958
   C       -0.63111        -7.52303         4.91176
   C       -1.92025        -7.44846         4.36974
   C       -2.20469        -6.45305         3.47567
   F       -0.36774        -8.50840         5.79141
   C        1.08040        -4.67545         3.29270
   C        0.77060        -3.68244         2.40645
   C        1.58233        -2.61370         1.83997
   C        2.96065        -2.56610         1.80359
   C        3.59177        -1.72265         0.88358
   N        4.07910        -1.13489         0.02152
   C        3.84342        -3.43735         2.46153
   N        4.62675        -4.11837         2.95535
   H        5.38929         7.71326         1.97700
   H        4.57251         9.76439        -1.67433
   H        4.57255         7.60975        -2.90857
   H        5.62933         5.28131         2.00160
   H        4.81201         5.15215        -2.91640
   H        5.96950         0.27237        -1.74023
   H        6.33087        -1.85937        -1.34211
   H        8.68123        -1.36699         3.12851
   H        7.29427        -7.10168         1.12021
   H        8.59145        -7.17658         3.38647
   H        6.24048        -5.77921        -1.15157
   H        4.78720        -3.09707        -1.12657
   H        3.15124        -8.46978        -7.81193
   H        1.77495        -6.20588        -8.31681
   H        3.38691        -1.97291        -2.01881
   H        2.19795        -1.63550        -4.81843
   H        2.38655        -0.29869        -1.31519
   H        1.52486         3.38320        -4.71960
   H        2.12958         4.92751         1.27090
   H        1.86027         7.04334        -0.22975
   H        2.57174         2.35562         1.62177
   H        2.28495         0.10609         2.20620
   H        0.24247        -0.05292        -0.05467
   H       -2.50208        -4.39551         1.74641
   H        1.33882        -6.72589         5.01545
   H       -2.65902        -8.17519         4.66825
   H       -3.19168        -6.37539         3.04491
   H        2.06446        -4.76015         3.72864
*
