# ORCA input file
# SCF done       -182.565044075995          0.000783278704
! CAM-B3LYP def2-SVP def2/J RIJCOSX Grid4 TightSCF
%maxcore 5000
%tddft
    Mode sTDDFT
    Ethresh 5.0
    maxcore 5000
end

%pal
  nprocs 6
  end
* xyz 0 1
   C       -7.45840         1.56081        -5.87472
   C       -7.81942         1.29591        -7.18686
   C       -8.29835         0.04739        -7.56013
   C       -8.43695        -0.97058        -6.62934
   C       -8.08327        -0.71759        -5.31346
   C       -7.58691         0.55078        -4.93307
   C       -7.28148         0.53176        -3.51037
   C       -6.92431         1.60518        -2.74699
   C       -6.78699         2.91918        -3.24944
   N       -6.66167         4.00687        -3.59136
   C       -6.68252         1.58583        -1.35417
   N       -6.47345         1.66511        -0.22893
   C       -7.43909        -0.85852        -3.06677
   C       -8.15015        -1.56256        -4.13351
   C       -8.91773        -2.68394        -4.00084
   C       -9.16675        -3.36452        -2.79011
   N       -9.43485        -3.96911        -1.85194
   C       -9.60611        -3.29825        -5.06978
   N      -10.16562        -3.86321        -5.89683
   C       -6.88759        -1.36095        -1.93593
   C       -6.70474        -2.73895        -1.56865
   N       -6.68571        -2.99897        -0.26968
   N       -6.55825        -4.18559         0.21534
   C       -6.40986        -5.26959        -0.53835
   C       -6.31678        -5.12202        -1.94968
   C       -6.46717        -3.80283        -2.48578
   N       -6.32930        -3.78519        -3.81010
   S       -6.05167        -5.28755        -4.32206
   N       -6.08852        -6.02507        -2.89808
   C       -6.35550        -6.52358         0.12843
   C       -6.12415        -7.77748        -0.41088
   C       -6.16798        -8.76350         0.56893
   C       -6.44615        -8.24416         1.85313
   S       -6.63229        -6.55096         1.85584
   C       -6.50207        -9.32568         2.77025
   C       -6.25076       -10.52289         2.06583
   C       -6.02621       -10.20707         0.66485
   C       -5.74154       -11.07921        -0.34447
   C       -5.53597       -10.65030        -1.67341
   N       -5.36340       -10.31022        -2.75453
   C       -5.62968       -12.46979        -0.12932
   N       -5.53953       -13.60092         0.03367
   C       -6.30351       -11.64858         2.88268
   C       -6.59886       -11.30657         4.19000
   S       -6.80408        -9.58572         4.42759
   C       -6.76141       -12.17231         5.30890
   N       -7.10306       -11.61722         6.46402
   N       -7.24607       -12.28636         7.56195
   C       -7.04900       -13.59394         7.63778
   C       -6.74086       -14.31882         6.45687
   C       -6.58467       -13.58174         5.24038
   N       -6.26753       -14.37028         4.21741
   S       -6.16543       -15.88323         4.74761
   N       -6.52536       -15.61990         6.28849
   C       -7.21240       -14.25799         8.90440
   C       -6.91866       -13.71778        10.10880
   C       -7.40306       -14.21759        11.39807
   C       -7.84641       -15.47924        11.67317
   C       -7.86667       -16.54998        10.75149
   N       -7.90153       -17.46642        10.06207
   C       -8.30656       -15.89459        12.94261
   N       -8.69210       -16.29161        13.94742
   C       -7.31824       -13.10255        12.32848
   C       -6.63565       -12.03170        11.70418
   C       -6.44025       -10.83394        12.37310
   C       -6.92376       -10.71242        13.66667
   C       -7.58534       -11.76560        14.28463
   C       -7.79041       -12.96790        13.62564
   C       -6.22331       -12.45467        10.37704
   C       -5.20532       -11.91787         9.64493
   C       -4.50595       -10.74774        10.01308
   N       -3.90570        -9.80286        10.26307
   C       -4.66537       -12.50383         8.47952
   N       -4.15374       -12.95977         7.55869
   H       -7.08158         2.53348        -5.60486
   H       -7.72189         2.07393        -7.92832
   H       -8.56632        -0.13622        -8.58927
   H       -8.80166        -1.93813        -6.93306
   H       -6.49031        -0.67403        -1.20072
   H       -5.94049        -7.92970        -1.45920
   H       -6.14629       -12.66682         2.57531
   H       -7.65618       -15.24197         8.84512
   H       -5.93741       -10.00717        11.89834
   H       -6.78507        -9.78387        14.19880
   H       -7.95170       -11.64740        15.29285
   H       -8.31351       -13.77194        14.11691
*
