# ORCA input file
# SCF done       -255.545744444669          0.000987329889
! CAM-B3LYP def2-SVP def2/J RIJCOSX Grid4 TightSCF
%maxcore 5000
%tddft
    Mode sTDDFT
    Ethresh 5.0
    maxcore 5000
end

%pal
  nprocs 6
  end
* xyz 0 1
   C       -0.39289         2.88635        -2.07828
   C       -1.26168         3.76499        -1.44932
   C       -2.19689         3.31274        -0.52846
   C       -2.28664         1.96751        -0.20538
   C       -1.42492         1.07921        -0.82826
   C       -0.47551         1.53681        -1.77118
   C        0.27795         0.39735        -2.27483
   C        1.38331         0.45082        -3.07764
   C        1.95492         1.64942        -3.55693
   N        2.46834         2.58527        -3.97812
   C        2.13632        -0.66608        -3.49984
   N        2.79845        -1.52631        -3.87367
   C       -0.37676        -0.80125        -1.74950
   C       -1.27134        -0.35861        -0.68074
   C       -1.67462        -1.10359         0.39252
   C       -1.26320        -2.43202         0.63092
   N       -0.91455        -3.48665         0.91931
   C       -2.47843        -0.60128         1.43718
   N       -3.14271        -0.24510         2.30244
   C       -0.24767        -2.04551        -2.27780
   C       -1.11243        -3.18049        -2.08678
   C       -0.55960        -4.46905        -2.16059
   C       -1.37501        -5.56064        -2.00516
   C       -2.76038        -5.39797        -1.82081
   C       -3.32279        -4.12828        -1.78923
   C       -2.49693        -3.03242        -1.91447
   C       -3.37052        -6.70488        -1.74315
   C       -2.36340        -7.67780        -1.88049
   C       -1.00895        -7.02477        -2.02401
   C       -0.32501        -7.42085        -3.34543
   C       -1.17652        -7.10852        -4.57026
   C       -0.08976        -7.37913        -0.83819
   C       -0.68541        -7.00029         0.51217
   C       -2.67615        -9.01404        -1.89815
   C       -4.01790        -9.41357        -1.78772
   C       -5.00589        -8.42930        -1.62320
   C       -4.69752        -7.08589        -1.59709
   C       -4.43980       -10.78746        -1.89539
   C       -3.64423       -11.86474        -2.06500
   C       -4.12141       -13.18679        -2.29344
   C       -5.42084       -13.64102        -2.43511
   C       -5.47359       -14.99719        -2.75526
   C       -4.20474       -15.59111        -2.84903
   S       -2.95102       -14.47632        -2.53713
   C       -4.36772       -16.94549        -3.24124
   C       -5.73923       -17.20267        -3.40396
   C       -6.48130       -15.99504        -3.08507
   C       -7.83467       -15.82649        -3.10056
   C       -8.71947       -16.86998        -3.44526
   N       -9.44370       -17.71364        -3.72529
   C       -8.43925       -14.59539        -2.77118
   N       -8.93187       -13.59466        -2.50464
   C       -5.99851       -18.49794        -3.85578
   C       -4.84004       -19.22654        -4.02988
   S       -3.40216       -18.30250        -3.61571
   C       -4.72038       -20.54894        -4.53555
   C       -3.59166       -21.31358        -4.63343
   C       -3.80774       -22.57066        -5.24317
   C       -2.85784       -23.57212        -5.53324
   C       -1.47399       -23.48107        -5.11681
   C       -0.36424       -23.89718        -5.79607
   C        0.82551       -23.71989        -5.05810
   C        0.64587       -23.18927        -3.81323
   S       -1.03328       -22.87675        -3.54090
   C        1.66831       -22.86917        -2.78551
  Cl        2.37113       -24.14888        -5.68099
   C       -3.32120       -24.68394        -6.23074
   C       -4.67143       -24.83563        -6.63596
   C       -5.62133       -23.83047        -6.34969
   C       -5.16192       -22.73361        -5.63751
   S       -6.12827       -21.35500        -5.19403
   C       -6.98153       -23.94590        -6.83020
   C       -7.39067       -24.37927        -8.05971
   C       -8.79484       -24.38567        -8.19728
   C       -9.46948       -23.95724        -7.08999
   S       -8.35095       -23.52735        -5.83982
   C      -10.93360       -23.83194        -6.88394
  Cl       -9.56530       -24.90708        -9.64683
   C       -4.89393       -26.06404        -7.28691
   C       -3.76566       -26.83369        -7.41829
   S       -2.37475       -26.07306        -6.67488
   C       -3.63469       -28.12288        -7.99825
   C       -4.42638       -28.66087        -8.96839
   C       -4.53122       -30.09007        -9.25719
   C       -3.64074       -31.07082        -8.91744
   C       -2.41372       -30.86552        -8.25024
   N       -1.40248       -30.77604        -7.71416
   C       -3.81022       -32.43528        -9.23783
   N       -3.88451       -33.55676        -9.46923
   C       -5.77559       -30.27837        -9.99101
   C       -6.32146       -29.01151       -10.29944
   C       -7.52772       -28.90352       -10.97164
   C       -8.18215       -30.06765       -11.34425
   C       -7.64085       -31.31314       -11.05703
   C       -6.43725       -31.43329       -10.37857
   C       -5.40726       -27.98849        -9.81907
   C       -5.32772       -26.71384       -10.30719
   C       -6.24217       -26.16995       -11.23540
   N       -6.95417       -25.66412       -11.97958
   C       -4.28143       -25.80891       -10.02624
   N       -3.44657       -25.03417        -9.88434
   H        0.32290         3.25444        -2.79476
   H       -1.20979         4.81703        -1.68434
   H       -2.86621         4.01613        -0.05735
   H       -3.02147         1.62596         0.50567
   H        0.56042        -2.20960        -2.97893
   H        0.50479        -4.57851        -2.30615
   H       -4.38851        -3.99862        -1.67662
   H       -2.92684        -2.04061        -1.92728
   H       -0.10694        -8.49038        -3.31953
   H        0.62580        -6.88980        -3.41990
   H       -2.12204        -7.64518        -4.52970
   H       -0.65159        -7.40443        -5.47543
   H       -1.38956        -6.04341        -4.62968
   H        0.86269        -6.86236        -0.97065
   H        0.10583        -8.45369        -0.86322
   H       -0.84286        -5.92708         0.57988
   H       -0.00861        -7.29650         1.31002
   H       -1.63871        -7.50133         0.66774
   H       -1.89751        -9.75144        -2.01574
   H       -6.03613        -8.74038        -1.52667
   H       -5.47513        -6.34662        -1.47798
   H       -5.51082       -10.93764        -1.87099
   H       -2.56862       -11.75854        -2.06759
   H       -6.28231       -13.00901        -2.32738
   H       -6.97337       -18.90305        -4.06006
   H       -2.63305       -20.96786        -4.29230
   H       -0.37868       -24.28021        -6.79932
   H        2.55321       -23.48099        -2.94551
   H        1.27852       -23.05185        -1.78656
   H        1.96086       -21.82011        -2.84930
   H       -6.72083       -24.62464        -8.86307
   H      -11.45807       -24.16708        -7.77511
   H      -11.20309       -22.79585        -6.68176
   H      -11.25556       -24.43270        -6.03416
   H       -5.86910       -26.39959        -7.59113
   H       -2.85531       -28.74023        -7.57233
   H       -7.96166       -27.94115       -11.19027
   H       -9.12589       -30.00148       -11.86346
   H       -8.16606       -32.20572       -11.36063
   H       -6.03779       -32.40910       -10.15670
*
