# ORCA input file
# SCF done       -208.993934991790          0.000239685929
! CAM-B3LYP def2-SVP def2/J RIJCOSX Grid4 TightSCF
%maxcore 5000
%tddft
    Mode sTDDFT
    Ethresh 5.0
    maxcore 5000
end

%pal
  nprocs 6
  end
* xyz 0 1
   C       -4.01424         3.67154        -0.03688
   C       -3.77745         4.11027         1.25734
   C       -3.30662         3.24369         2.23401
   C       -3.04682         1.91325         1.94163
   C       -3.27380         1.46568         0.65076
   C       -3.76775         2.34198        -0.34226
   C       -3.94165         1.59892        -1.58288
   C       -4.27084         2.13287        -2.79924
   C       -4.48860         3.50966        -3.02486
   N       -4.67761         4.61203        -3.28130
   C       -4.39802         1.41206        -4.00580
   N       -4.51490         0.89188        -5.02283
   C       -3.69709         0.19306        -1.26822
   C       -3.06884         0.15755         0.04965
   C       -2.21091        -0.79854         0.52156
   C       -1.81806        -1.94625        -0.19654
   N       -1.43066        -2.87574        -0.74812
   C       -1.52636        -0.70263         1.75282
   N       -0.93798        -0.68189         2.73721
   C       -4.09732        -0.84782        -2.05758
   C       -4.26006        -2.20139        -1.68828
   C       -4.46830        -2.75829        -0.43269
   C       -4.61406        -4.13663        -0.48840
   C       -4.52247        -4.64485        -1.80180
   S       -4.28672        -3.42061        -2.95738
   C       -4.65157        -6.05217        -1.74303
   C       -4.82679        -6.43816        -0.40047
   C       -4.79198        -5.24677         0.43344
   C       -4.85692        -5.17387         1.79339
   C       -4.99045        -6.31811         2.60870
   N       -5.09112        -7.24528         3.27481
   C       -4.77196        -3.93381         2.46207
   N       -4.70023        -2.91530         2.98388
   C       -4.96731        -7.81483        -0.24267
   C       -4.89159        -8.48921        -1.45129
   S       -4.64018        -7.38644        -2.80291
   C       -4.96947        -9.89007        -1.70390
   C       -4.52173       -10.43674        -2.86586
   C       -4.58146       -11.82251        -3.13999
   C       -5.25818       -12.69510        -2.34733
   C       -6.02063       -12.16617        -1.14890
   C       -5.48903       -10.81439        -0.61329
   N       -6.47390       -10.11209         0.17566
   C       -7.69539       -10.29994        -0.05595
   C       -8.17194       -11.27490        -1.05569
   N       -7.40875       -12.13598        -1.56117
   F       -9.44064       -11.21614        -1.43569
   F       -8.59814        -9.61904         0.63548
   C       -5.41331       -14.07072        -2.67418
   C       -6.24572       -15.00488        -2.07662
   C       -6.17842       -16.24651        -2.70235
   C       -5.27604       -16.26982        -3.78273
   S       -4.52043       -14.76075        -4.02528
   C       -5.29209       -17.55983        -4.36261
   C       -6.21916       -18.35388        -3.65288
   C       -6.78878       -17.56085        -2.57668
   C       -7.67618       -17.98285        -1.63097
   C       -8.17042       -19.30466        -1.62998
   N       -8.56280       -20.38175        -1.65295
   C       -8.13677       -17.13298        -0.60341
   N       -8.50228       -16.43756         0.23142
   C       -6.31126       -19.64731        -4.14413
   C       -5.45458       -19.86453        -5.21666
   S       -4.55009       -18.41079        -5.63288
   C       -5.27465       -21.00900        -6.02194
   C       -5.63792       -22.30107        -5.76369
   C       -5.79344       -23.31820        -6.80194
   C       -5.26736       -23.30348        -8.06511
   C       -4.42539       -22.30089        -8.59224
   N       -3.73213       -21.52826        -9.08317
   C       -5.46005       -24.33295        -9.01212
   N       -5.57474       -25.13013        -9.82945
   C       -6.61756       -24.37492        -6.23140
   C       -6.80343       -24.11563        -4.85452
   C       -7.57982       -24.95565        -4.07396
   C       -8.16424       -26.06086        -4.67442
   C       -7.97237       -26.32553        -6.02331
   C       -7.20033       -25.48874        -6.81543
   C       -6.05994       -22.91413        -4.50808
   C       -5.61650       -22.59728        -3.25275
   C       -5.95553       -23.32725        -2.09251
   N       -6.18893       -23.88551        -1.11817
   C       -4.69018       -21.57250        -2.97310
   N       -3.91617       -20.77032        -2.69854
   H       -4.38848         4.35723        -0.77898
   H       -3.96936         5.14250         1.50702
   H       -3.14133         3.60715         3.23651
   H       -2.69265         1.24536         2.70990
   H       -4.38114        -0.62168        -3.07676
   H       -4.54830        -2.17094         0.46411
   H       -5.11236        -8.31560         0.69584
   H       -4.08834        -9.79378        -3.61801
   H       -4.09318       -12.18179        -4.03406
   H       -5.96202       -12.89960        -0.33351
   H       -4.64876       -11.00919         0.06788
   H       -6.89440       -14.77540        -1.25255
   H       -6.99860       -20.38874        -3.77951
   H       -4.84894       -20.80322        -6.99527
   H       -7.74468       -24.75231        -3.02834
   H       -8.77882       -26.72140        -4.08245
   H       -8.43532       -27.19286        -6.46839
   H       -7.07043       -25.70516        -7.86296
*
