# ORCA input file
# SCF done       -222.662216871102          0.000768009092
! CAM-B3LYP def2-SVP def2/J RIJCOSX Grid4 TightSCF
%maxcore 5000
%tddft
    Mode sTDDFT
    Ethresh 5.0
    maxcore 5000
end

%pal
  nprocs 6
  end
* xyz 0 1
   C        1.39166        -1.75356        -1.86480
   C        1.53826        -1.30867        -0.57915
   C        1.68701         0.05600        -0.30311
   C        1.69515         1.00377        -1.30378
   C        1.53526         0.56273        -2.64490
   C        1.38645        -0.82277        -2.91932
   N        1.24258        -1.25454        -4.19150
   C        1.23078        -0.37440        -5.15672
   C        1.34841         1.02048        -4.87970
   N        1.49521         1.45465        -3.65662
   C        1.30958         2.04310        -5.96756
   C        1.08163        -0.88141        -6.55314
   C        1.85314         2.43088        -1.00376
   C        2.66733         3.23352        -1.80723
   C        2.78652         4.57427        -1.52408
   C        2.07335         5.14001        -0.45427
   C        1.27619         4.34728         0.35670
   C        1.17930         2.99662         0.07968
   C        2.29923         6.57085        -0.45315
   C        3.13613         6.89018        -1.53550
   C        3.58295         5.63277        -2.25222
   C        3.26339         5.66467        -3.75312
   C        1.77885         5.88291        -4.02227
   C        5.10185         5.49053        -1.99396
   C        5.73318         4.18205        -2.45050
   C        3.48432         8.19295        -1.79325
   C        3.00708         9.21522        -0.95969
   C        2.19629         8.87649         0.13174
   C        1.82961         7.57034         0.38578
   C        3.33581        10.60587        -1.17425
   C        3.81161        11.13986        -2.31443
   C        4.13229        12.52290        -2.48564
   C        4.22056        13.51922        -1.55612
   C        4.57320        14.77993        -2.09332
   C        4.71129        16.00613        -1.41187
   C        4.59471        16.12196         0.02793
   C        4.02672        17.13633         0.74361
   C        4.15585        16.96099         2.13863
   C        4.82506        15.83188         2.50852
   S        5.30604        14.94485         1.10111
   C        5.15018        15.34389         3.87266
  Cl        3.51386        18.09237         3.26798
   C        4.98952        17.12140        -2.19396
   C        5.14414        17.07379        -3.60136
   C        5.01025        15.84701        -4.28364
   C        4.73870        14.72941        -3.50041
   S        4.49239        13.11320        -4.09646
   C        5.12221        15.74163        -5.72406
   C        5.68285        14.73197        -6.45284
   C        5.56226        14.93090        -7.84518
   C        4.90555        16.07240        -8.20101
   S        4.42360        16.93940        -6.78328
   C        4.59932        16.59289        -9.55696
  Cl        6.19940        13.81213        -8.98927
   C        5.48364        18.33835        -4.13855
   C        5.57526        19.32813        -3.20109
   S        5.24734        18.73398        -1.58684
   C        5.87474        20.70218        -3.41921
   C        6.04042        21.34175        -4.63260
   C        6.31063        22.70183        -4.47245
   C        6.35247        23.09738        -3.12658
   S        6.05764        21.79778        -2.06035
   C        6.62487        24.49138        -3.07360
   C        6.75086        24.97101        -4.38538
   C        6.55687        23.86784        -5.30843
   C        6.59044        23.91652        -6.67267
   C        6.38448        22.77190        -7.46959
   N        6.21778        21.84227        -8.12099
   C        6.82935        25.11501        -7.37535
   N        7.02202        26.08262        -7.96059
   C        7.01585        26.34194        -4.44149
   C        7.09416        26.91585        -3.19294
   S        6.83315        25.72389        -1.91523
   C        7.34677        28.29143        -2.84836
   C        7.41529        28.68378        -1.52170
   C        7.65726        30.00555        -1.14505
   C        7.83687        30.98012        -2.09008
   C        7.77517        30.63658        -3.45246
   C        7.53242        29.29414        -3.84877
   N        7.48047        28.99158        -5.16048
   C        7.65175        29.93467        -6.04952
   C        7.89128        31.28264        -5.64588
   N        7.94858        31.60231        -4.38107
   C        8.08346        32.37337        -6.64567
   C        7.58619        29.54657        -7.48758
   H        1.28167        -2.79993        -2.10199
   H        1.54642        -2.01270         0.24025
   H        1.82185         0.37042         0.72176
   H        0.37077         1.97992        -6.51579
   H        2.12264         1.87852        -6.67365
   H        1.40449         3.03344        -5.53105
   H        1.00641        -1.96482        -6.53512
   H        1.93986        -0.58906        -7.15677
   H        0.18752        -0.46513        -7.01515
   H        3.17751         2.79070        -2.64622
   H        0.72584         4.77793         1.18021
   H        0.53888         2.37237         0.68600
   H        3.56924         4.71934        -4.20291
   H        3.84204         6.46450        -4.22097
   H        1.19305         5.06929        -3.59985
   H        1.59287         5.92584        -5.09359
   H        1.44033         6.81650        -3.57763
   H        5.26954         5.60243        -0.91928
   H        5.60361         6.32317        -2.49275
   H        5.31139         3.33922        -1.91007
   H        6.80278         4.21041        -2.25202
   H        5.59335         4.02377        -3.51653
   H        4.13571         8.43316        -2.61960
   H        1.83928         9.66583         0.77824
   H        1.19284         7.33286         1.22503
   H        3.14328        11.26079        -0.33465
   H        3.94840        10.52320        -3.19162
   H        4.03635        13.35671        -0.51133
   H        3.50207        17.96486         0.30574
   H        4.67109        15.98077         4.61215
   H        6.22734        15.36054         4.03955
   H        4.80632        14.31927         4.00722
   H        6.19716        13.89172        -6.02534
   H        5.06757        15.96016       -10.30695
   H        4.96824        17.61173        -9.66814
   H        3.52298        16.60589        -9.72947
   H        5.67438        18.50971        -5.18051
   H        5.95744        20.83914        -5.57810
   H        7.14841        26.92332        -5.33453
   H        7.27753        27.94023        -0.74902
   H        7.70095        30.25100        -0.09445
   H        8.02471        32.00909        -1.82845
   H        7.20413        32.46285        -7.28184
   H        8.93896        32.15641        -7.28357
   H        8.24982        33.31235        -6.12574
   H        7.40485        28.47896        -7.57780
   H        8.52096        29.79491        -7.98822
   H        6.78529        30.08915        -7.98806
*
