# ORCA input file
# SCF done       -204.215878352905          0.000945753855
! CAM-B3LYP def2-SVP def2/J RIJCOSX Grid4 TightSCF
%maxcore 5000
%tddft
    Mode sTDDFT
    Ethresh 5.0
    maxcore 5000
end

%pal
  nprocs 6
  end
* xyz 0 1
   C       -3.42336         2.33990         1.02560
   C       -2.60656         2.87563         0.09716
   C       -1.28352         2.34365         0.14236
   C       -0.18487         2.66537        -0.67493
   C       -0.27507         3.60064        -1.77956
   C        0.64920         4.52601        -2.16977
   C        0.25731         5.23715        -3.32509
   C       -0.94915         4.86259        -3.83894
   S       -1.63635         3.60279        -2.87015
   C       -1.65778         5.38722        -5.03369
  Cl        1.23477         6.47492        -4.01559
   C        1.01892         2.02717        -0.38198
   C        1.15176         1.07640         0.65817
   C        0.04201         0.72279         1.44999
   C       -1.14661         1.39192         1.18191
   S       -2.65377         1.15824         2.02588
   C        0.16936        -0.29443         2.47348
   C        0.87878        -1.45967         2.40594
   C        0.83442        -2.19170         3.61099
   C        0.09772        -1.61303         4.60170
   S       -0.57120        -0.11654         4.04071
   C       -0.15891        -2.09989         5.98113
  Cl        1.66486        -3.69166         3.79866
   C        2.47548         0.58975         0.75960
   C        3.32199         1.09495        -0.18240
   S        2.52146         2.24241        -1.23399
   C        4.70835         0.73991        -0.32538
   C        5.59189         1.34769        -1.20118
   F        5.15955         2.33476        -2.00607
   C        6.94773         0.98742        -1.31068
   F        7.67449         1.64509        -2.23428
   C        7.53587        -0.01410        -0.56267
   C        6.65324        -0.67655         0.31593
   C        5.28047        -0.30631         0.43963
   N        4.73565        -1.11919         1.35719
   N        5.71615        -1.89221         1.73474
   N        6.87295        -1.68940         1.16946
   C        5.51850        -2.90567         2.72542
   C        8.94441        -0.35494        -0.65889
   C        9.47347        -1.61418        -0.81523
   C        8.81057        -2.93852        -0.92931
   N       10.82835        -1.47706        -0.88616
   C       11.19699        -0.17265        -0.77438
   C       12.63168         0.21378        -0.77810
   C       10.03838         0.57754        -0.63012
   C        9.87531         1.97731        -0.38061
   C       10.81006         2.93212        -0.55968
   C       10.66029         4.33319        -0.29023
   C        9.54375         5.00137         0.19952
   F        8.41407         4.32951         0.50295
   C        9.50082         6.38513         0.41902
   F        8.34310         6.88752         0.89846
   C       10.56179         7.24899         0.18223
   C       11.72176         6.59982        -0.30896
   C       11.76028         5.19434        -0.53520
   N       12.98734         4.89713        -0.98921
   N       13.60745         6.04360        -1.02348
   N       12.92586         7.08702        -0.63778
   C       14.96587         6.17120        -1.45343
   C       10.53080         8.66180         0.40443
   C       11.58662         9.53018         0.19722
   C       11.24616        10.84610         0.50488
   C        9.92313        10.97927         0.94713
   S        9.09715         9.48852         0.98816
   C        9.68679        12.35654         1.23006
   C       10.85699        13.07842         0.96637
   C       11.87800        12.15835         0.50305
   C       13.16291        12.44660         0.14176
   C       14.06523        11.45276        -0.29008
   N       14.81175        10.65620        -0.64359
   C       13.67754        13.75868         0.17564
   N       14.11056        14.82046         0.20910
   C       10.70938        14.45585         1.22207
   C        9.45601        14.74617         1.66559
   S        8.42155        13.35822         1.78425
   H       -4.45626         2.56655         1.20362
   H       -2.92076         3.63280        -0.59649
   H        1.56416         4.72561        -1.64417
   H       -1.08349         6.20132        -5.46873
   H       -2.64734         5.75440        -4.76375
   H       -1.78300         4.60415        -5.78124
   H        1.38465        -1.80811         1.52523
   H        0.34537        -3.05055         6.13742
   H       -1.22732        -2.23455         6.14641
   H        0.20517        -1.38175         6.71511
   H        2.81156        -0.09303         1.51454
   H        6.10893        -2.67886         3.61380
   H        5.83289        -3.87247         2.33279
   H        4.46083        -2.92921         2.97891
   H        7.92170        -2.86393        -1.55196
   H        8.49810        -3.28748         0.05463
   H        9.48762        -3.66912        -1.36724
   H       11.47210        -2.24326        -1.00492
   H       12.84352         0.90168         0.03842
   H       12.90187         0.70610        -1.71268
   H       13.25837        -0.66916        -0.66335
   H        8.89693         2.25033        -0.01492
   H       11.77855         2.68120        -0.96188
   H       15.23336         7.22425        -1.39894
   H       15.06704         5.80809        -2.47629
   H       15.61728         5.58376        -0.80577
   H       12.54056         9.19113        -0.16013
   H       11.48128        15.19150         1.08772
   H        9.05878        15.70359         1.93709
*
