# ORCA input file
# SCF done       -180.815003351444          0.000454870906
! CAM-B3LYP def2-SVP def2/J RIJCOSX Grid4 TightSCF
%maxcore 5000
%tddft
    Mode sTDDFT
    Ethresh 5.0
    maxcore 5000
end

%pal
  nprocs 6
  end
* xyz 0 1
   C        5.87121         1.21225         0.08510
   C        4.80108         2.00692         0.31034
   C        3.69808         1.62323         1.09898
   C        3.66775         0.29957         1.72913
   C        4.64338        -0.62992         1.62240
   S        6.08007        -0.38937         0.71440
   C        2.43550         0.25412         2.43640
   C        1.74201         1.45308         2.27145
   C        0.50683         1.43220         2.95856
   C        0.30799         0.25505         3.60857
   S        1.59741        -0.87955         3.41975
   C        2.53328         2.32715         1.43088
   C        2.25027         3.65038         1.01228
   C        1.17594         4.39307         1.38143
   C        0.91606         5.74017         0.99814
   C        1.68144         6.49608         0.14086
   C        1.45242         7.83450        -0.17323
   C        0.38993         8.59889         0.49704
   C       -0.51963         8.05511         1.33398
   S       -0.53095         6.39548         1.76396
   C        0.56653         9.94465         0.07455
   C        1.65548        10.02417        -0.79247
   C        1.87937        11.34205        -1.24834
   C        0.97646        12.21086        -0.72372
   S       -0.17972        11.47235         0.33428
   C        2.19942         8.70588        -0.98911
   C        3.27135         8.42593        -1.87074
   C        3.50994         7.23730        -2.48696
   C        4.60232         6.99728        -3.35542
   C        5.75629         7.74459        -3.53936
   C        6.60101         7.18758        -4.49531
   C        6.09002         6.00805        -5.06793
   S        4.57773         5.57178        -4.39243
   C        7.00851         5.54224        -6.03302
   C        8.11700         6.40987        -6.05787
   C        7.89648         7.47104        -5.09487
   C        8.72551         8.52018        -4.81156
   C        8.39295         9.50328        -3.85900
   N        8.12319        10.30960        -3.08828
   C        9.96806         8.69045        -5.45385
   N       10.98320         8.83430        -5.96893
   C        9.08238         6.03541        -6.99270
   C        8.71596         4.90914        -7.70323
   S        7.14683         4.28453        -7.18430
   C        9.43703         4.25772        -8.74495
   C        8.86095         3.32844        -9.57505
   C        9.50677         2.67027       -10.62217
   C       10.90745         2.99011       -10.94275
   C       11.67061         3.86306       -10.25206
   S       11.12401         4.74562        -8.88581
   C       11.21638         2.22826       -12.10236
   C       10.09604         1.49772       -12.49121
   C       10.34072         0.72394       -13.64740
   C       11.61246         0.88652       -14.09686
   S       12.56247         1.97604       -13.14236
   C        9.01850         1.74832       -11.56650
   C        7.74365         1.14765       -11.71710
   C        6.75462         1.05839       -10.79114
   C        5.45597         0.51021       -11.00758
   C        4.95163         0.09175       -12.21330
   C        3.66808        -0.42137       -12.41840
   C        2.75387        -0.64544       -11.28244
   C        3.02736        -0.29114       -10.00907
   S        4.49223         0.45764        -9.52840
   C        1.60787        -1.26927       -11.84040
   C        1.78377        -1.41832       -13.21785
   C        0.66593        -2.02658       -13.83364
   C       -0.30446        -2.31956       -12.93055
   S        0.08786        -1.87016       -11.30240
   C        3.05683        -0.87246       -13.59257
   C        3.52399        -0.83336       -14.95298
   C        4.37905         0.04221       -15.47980
   H        6.70451         1.52380        -0.52144
   H        4.80303         2.98762        -0.14468
   H        4.58301        -1.59172         2.10632
   H       -0.21575         2.22683         2.98391
   H       -0.53799        -0.02872         4.20371
   H        2.98801         4.09175         0.35649
   H        0.44700         3.96212         2.05015
   H        2.55284         6.02394        -0.28709
   H       -1.30713         8.63120         1.79347
   H        2.66254        11.63676        -1.92308
   H        0.90677        13.26792        -0.89139
   H        3.90567         9.26852        -2.11388
   H        2.80026         6.42838        -2.38405
   H        5.96774         8.63999        -2.98478
   H       10.00342         6.56137        -7.16926
   H        7.80991         3.13878        -9.41177
   H       12.69478         4.07319       -10.51735
   H        9.62358         0.08075       -14.12491
   H       12.07227         0.42619       -14.94955
   H        7.58344         0.69495       -12.68726
   H        6.93717         1.39696        -9.78186
   H        5.60744         0.14822       -13.06859
   H        2.33234        -0.44841        -9.19909
   H        0.57997        -2.23678       -14.88460
   H       -1.25506        -2.78204       -13.11253
   H        3.08088        -1.58279       -15.59903
   H        4.79621         0.85681       -14.91378
   H        4.66057        -0.00911       -16.51775
*
