# ORCA input file
# SCF done       -172.966253970592          0.000674420420
! CAM-B3LYP def2-SVP def2/J RIJCOSX Grid4 TightSCF
%maxcore 5000
%tddft
    Mode sTDDFT
    Ethresh 5.0
    maxcore 5000
end

%pal
  nprocs 6
  end
* xyz 0 1
   C       -1.64622         0.84979         2.13501
   N       -0.60521         1.59170         2.36469
   O       -1.03042         2.75723         2.86328
   C       -2.38160         2.75664         2.95226
   C       -2.99039         3.95297         3.50195
   O       -4.17028         4.13889         3.66515
   C       -2.85115         1.52668         2.48582
   C       -4.16967         0.99990         2.36095
   C       -5.38431         1.60911         2.59992
   C       -6.45416         0.74287         2.36451
   C       -6.04268        -0.53439         1.94699
   S       -4.34991        -0.66962         1.83097
   C       -7.19188        -1.34569         1.76431
   C       -8.33080        -0.58372         2.06662
   C       -7.90825         0.76370         2.42746
   C       -8.71149         1.82429         2.71708
   C      -10.12197         1.73834         2.68715
   N      -11.26651         1.69864         2.64644
   C       -8.21158         3.10911         3.02734
   N       -7.84361         4.16599         3.27305
   C       -9.51861        -1.30830         1.95363
   C       -9.28874        -2.61394         1.56045
   S       -7.57875        -2.94609         1.31991
   C      -10.22982        -3.66273         1.35486
   C      -11.55919        -3.72165         1.75222
   C      -12.22332        -2.66909         2.40236
   N      -12.76535        -1.79145         2.90295
   C      -12.17791        -4.95055         1.38980
   C      -11.30300        -5.77576         0.69358
   S       -9.72775        -5.11186         0.50937
   S      -11.98204        -7.27474         0.14385
   C      -13.48179        -6.80316         0.87407
   C      -13.45572        -5.57023         1.52166
   C      -14.70038        -5.29313         2.14527
   C      -14.88475        -4.27330         3.09582
   N      -14.95806        -3.53066         3.96707
   C      -15.63618        -6.29536         1.91572
   S      -14.98365        -7.63332         1.01013
   C      -16.99721        -6.31216         2.35374
   C      -17.70744        -7.51032         2.54557
   C      -19.02683        -7.53719         3.11850
   N      -19.64734        -8.73586         3.23430
   C      -19.04272        -9.81304         2.86234
   C      -17.72353        -9.78316         2.33248
   N      -17.10039        -8.66264         2.18598
   F      -17.10435       -10.89897         1.96479
   F      -19.70343       -10.96256         2.98317
   C      -19.70102        -6.36091         3.51191
   C      -19.04076        -5.15553         3.19195
   C      -17.71602        -5.13287         2.61425
   N      -17.30434        -3.89028         2.35628
   S      -18.41807        -2.85885         2.84709
   N      -19.50079        -3.91112         3.37355
   C      -20.96934        -6.34977         4.21511
   C      -21.85903        -5.34513         4.07909
   C      -23.04586        -5.25760         4.88541
   C      -23.41587        -6.24500         5.70137
   C      -22.65715        -7.54138         5.75626
   C      -21.19557        -7.43237         5.25691
   N      -20.21906        -7.16479         6.28840
   C      -20.50298        -7.42760         7.48377
   C      -21.81077        -7.97664         7.88695
   N      -22.78764        -8.05521         7.10064
   F      -21.94446        -8.41080         9.13566
   F      -19.60739        -7.18631         8.43740
   H       -1.53716        -0.13616         1.72983
   H       -2.23347         4.70781         3.77739
   H       -5.46617         2.62757         2.93618
   H      -10.49942        -0.91355         2.14199
   H      -21.68075        -4.56280         3.35987
   H      -23.62863        -4.35162         4.82007
   H      -24.28411        -6.18512         6.33828
   H      -23.19769        -8.25777         5.12099
   H      -20.89749        -8.39025         4.81503
*
