# ORCA input file
# SCF done       -169.449609958210          0.000627398790
! CAM-B3LYP def2-SVP def2/J RIJCOSX Grid4 TightSCF
%maxcore 5000
%tddft
    Mode sTDDFT
    Ethresh 5.0
    maxcore 5000
end

%pal
  nprocs 6
  end
* xyz 0 1
   C        2.34415         2.28783        -3.73387
   C        1.98884         2.71990        -4.96246
   O        0.78543         2.95820        -5.52330
   C       -0.33936         2.72186        -4.70339
   S        3.37080         3.01463        -5.99157
   C        4.44359         2.53582        -4.70549
   O        5.77631         2.52657        -4.83697
   C        6.30309         2.91094        -6.08642
   C        3.76299         2.17268        -3.56058
   C        4.43562         1.73687        -2.37930
   C        3.82915         1.33916        -1.23845
   C        4.52490         0.89605        -0.08405
   O        5.88582         0.86102        -0.02951
   C        4.03408         0.43145         1.12089
   C        2.81487         0.14364         1.86638
   O        1.65087         0.26684         1.57990
   N        3.28711        -0.34981         3.08823
   C        4.66869        -0.41238         3.20722
   O        5.26475        -0.81753         4.17819
   C        5.15465         0.10079         1.92803
   C        6.28214         0.38139         1.18223
   C        7.66771         0.23779         1.47320
   C        8.09337        -0.24392         2.66090
   C        9.46905        -0.44207         2.99515
   C        9.90946        -0.95101         4.15859
   C        9.01324        -1.36315         5.28571
   C       11.38303        -1.16025         4.39363
   N       11.81681        -0.53382         5.61976
   C       13.06263        -0.10515         5.86234
   C       13.48979         0.33296         7.08185
   C       14.79573         0.77279         7.33442
   C       15.25338         1.17046         8.56677
   C       16.56113         1.57842         8.91110
   C       16.72511         1.88209        10.23052
   C       15.55012         1.74105        11.00047
   S       14.22875         1.20610        10.00101
   C       15.39363         1.96819        12.35943
   C       16.36998         2.36696        13.29030
   C       15.90335         2.47584        14.57020
   C       14.53567         2.16852        14.71204
   S       13.84939         1.77415        13.15965
   C       13.72931         2.24516        15.84105
   C       14.15042         2.30287        17.16029
   C       15.34329         1.82568        17.69732
   C       15.79697         2.06860        19.03670
   C       15.36085         3.06768        19.87988
   C       15.84977         3.26869        21.18278
   N       16.20651         3.47528        22.25600
   C       14.40561         4.04210        19.53400
   N       13.65817         4.88780        19.31481
   C       16.87642         1.12702        19.32893
   C       17.10388         0.34431        18.17276
   C       16.16496         0.76363        17.10491
   O       16.08000         0.25533        16.00008
   C       18.05499        -0.64273        18.12284
   C       18.82226        -0.86771        19.27265
   C       18.58736        -0.08078        20.42142
   C       17.62268         0.92036        20.47130
   S       19.64128        -0.53003        21.73060
   C       20.37197        -1.75258        20.72528
   C       19.85722        -1.82254        19.47593
  Br       21.74948        -2.82234        21.42019
   H        1.64653         2.05163        -2.95395
   H       -1.20594         2.96349        -5.31485
   H       -0.32128         3.36270        -3.81710
   H       -0.38596         1.67413        -4.39259
   H        7.38479         2.84070        -5.99364
   H        6.01574         3.93752        -6.33359
   H        5.95279         2.24443        -6.88056
   H        5.51529         1.72874        -2.43323
   H        2.75496         1.32441        -1.13858
   H        2.66545        -0.64253         3.82832
   H        8.35797         0.52551         0.69285
   H        7.35175        -0.50037         3.40166
   H       10.19036        -0.16967         2.23451
   H        8.77066        -0.50490         5.91382
   H        9.49118        -2.12138         5.90325
   H        8.07229        -1.76386         4.92022
   H       11.96958        -0.75357         3.56623
   H       11.57564        -2.24549         4.44299
   H       11.17948        -0.58560         6.40104
   H       13.73652        -0.11168         5.01583
   H       12.79734         0.32711         7.91321
   H       15.50248         0.78350         6.51468
   H       17.34392         1.63053         8.17456
   H       17.65317         2.20406        10.66677
   H       17.38775         2.56298        13.00347
   H       16.49652         2.80713        15.40272
   H       12.66241         2.29893        15.66449
   H       13.42224         2.68164        17.86848
   H       18.20416        -1.22562        17.22734
   H       17.47656         1.49043        21.37356
   H       20.18970        -2.51811        18.72702
*
