# ORCA input file
# SCF done       -202.771155750966          0.000390156079
! CAM-B3LYP def2-SVP def2/J RIJCOSX Grid4 TightSCF
%maxcore 5000
%tddft
    Mode sTDDFT
    Ethresh 5.0
    maxcore 5000
end

%pal
  nprocs 6
  end
* xyz 0 1
   C        6.01636         5.02208         0.43445
   C        5.07263         6.00849         0.51172
   F        4.90655         6.67654         1.66729
   C        4.25994         6.35773        -0.57525
   C        4.41337         5.68864        -1.75773
   C        5.36963         4.66154        -1.89260
   C        6.18565         4.32055        -0.77466
   C        7.14289         3.28410        -0.88138
   C        7.27649         2.61537        -2.06698
   C        6.46999         2.97166        -3.18687
   C        5.53582         3.96358        -3.11025
   C        6.83302         2.12192        -4.33732
   O        6.33171         2.09991        -5.43892
   C        7.99810         1.32061        -3.87662
   C        8.12290         1.48801        -2.45019
   C        8.68529         0.59128        -1.57444
   C        9.20909        -0.65263        -1.97663
   N        9.59965        -1.69275        -2.26861
   C        8.71353         0.76812        -0.17801
   N        8.78655         0.87315         0.96305
   C        8.75826         0.65343        -4.79933
   C       10.08248         0.20330        -4.70747
   S       11.22311         0.82829        -3.55626
   C       12.51666        -0.16084        -4.14412
   C       12.07591        -0.95579        -5.22773
   C       10.71207        -0.72869        -5.56163
   C       10.12026        -1.43535        -6.62087
   C       10.88373        -2.32572        -7.32563
   F       10.34524        -3.00439        -8.34672
   C       12.23708        -2.54791        -6.99647
   F       12.94715        -3.43275        -7.71202
   C       12.83294        -1.88013        -5.96192
   C       13.79605        -0.14226        -3.58056
   C       14.19959         0.75135        -2.62292
   C       15.45301         0.84795        -2.00693
   C       16.57040        -0.01878        -1.93828
   C       17.67435         0.54773        -1.23361
   C       18.84117        -0.21682        -1.08183
   C       18.91671        -1.47653        -1.61827
   C       17.82209        -2.04043        -2.28061
   C       16.65844        -1.33209        -2.42541
   C       17.41620         1.86180        -0.74543
   S       15.78814         2.31591        -1.14433
   C       18.28449         2.77377        -0.13277
   S       19.97684         2.39648         0.05766
   C       20.41467         4.01037         0.49210
   C       19.25947         4.79940         0.62916
   C       18.05520         4.11278         0.28028
   C       16.83526         4.80266         0.36425
   C       16.83178         6.11939         0.73647
   F       15.66737         6.77311         0.83079
   C       18.02859         6.80442         1.03343
   F       17.97207         8.09430         1.38224
   C       19.23154         6.15978         0.98511
   C       21.76483         4.40775         0.66100
   C       22.85225         3.90242         0.01322
   C       22.90843         3.02361        -1.10147
   C       22.03235         2.79907        -2.12714
   C       22.16362         1.53742        -2.90549
   O       23.12623         0.80734        -2.95462
   C       20.83838         1.32819        -3.52819
   C       20.37428         0.24992        -4.22191
   C       19.04490         0.25877        -4.70371
   C       18.22038         1.39269        -4.45262
   C       16.90678         1.41025        -4.95965
   C       16.45733         0.34679        -5.69062
   C       17.24473        -0.78537        -5.93340
   C       18.52032        -0.82093        -5.44066
   F       15.20858         0.37356        -6.20213
   C       18.72493         2.49160        -3.71984
   C       20.01762         2.46289        -3.27095
   C       20.79634         3.43793        -2.51318
   C       20.44454         4.75055        -2.30805
   C       21.32056         5.72615        -1.79798
   N       22.00402         6.56501        -1.41462
   C       19.17318         5.27563        -2.60602
   N       18.12787         5.72670        -2.75892
   H        6.62230         4.77753         1.29285
   H        3.53254         7.14484        -0.45542
   H        3.79883         5.93992        -2.60904
   H        7.75242         3.04997        -0.02285
   H        4.92738         4.21190        -3.96688
   H        8.28199         0.52964        -5.76739
   H        9.08635        -1.29148        -6.88759
   H       13.86785        -2.07137        -5.73485
   H       14.49444        -0.85853        -3.97960
   H       13.48907         1.52004        -2.33932
   H       19.68105         0.16082        -0.52601
   H       19.82237        -2.05060        -1.50027
   H       17.88941        -3.04891        -2.65824
   H       15.80243        -1.79878        -2.88078
   H       15.89126         4.32935         0.15958
   H       20.13956         6.69373         1.21103
   H       21.93433         5.19068         1.38898
   H       23.82113         4.20115         0.39320
   H       23.80565         2.41253        -1.15965
   H       21.01355        -0.59962        -4.40877
   H       16.27101         2.26590        -4.79324
   H       16.83807        -1.59698        -6.51627
   H       19.14937        -1.67886        -5.62305
   H       18.07522         3.33298        -3.53731
*
