# ORCA input file
# SCF done       -185.902108496584          0.000716987631
! CAM-B3LYP def2-SVP def2/J RIJCOSX Grid4 TightSCF
%maxcore 5000
%tddft
    Mode sTDDFT
    Ethresh 5.0
    maxcore 5000
end

%pal
  nprocs 6
  end
* xyz 0 1
   C       -7.72372        -3.02319        -2.73890
   C       -8.20529        -4.05040        -1.96938
   C       -7.84074        -5.40233        -2.13243
   N       -7.57991        -6.51649        -2.22178
   C       -9.12418        -3.87909        -0.91412
   N       -9.86907        -3.77878        -0.04631
   C       -6.76526        -3.14833        -3.83346
   C       -6.50810        -1.86019        -4.37269
   C       -5.64591        -1.65531        -5.42315
   C       -5.00576        -2.77246        -5.96938
   C       -5.26608        -4.05274        -5.42407
   C       -6.13811        -4.26012        -4.36122
   S       -4.37132        -5.29183        -6.24731
   C       -3.66924        -4.09204        -7.30036
   C       -4.08248        -2.82659        -7.04854
  Br       -2.45815        -4.62140        -8.63035
   C       -7.29938        -0.87205        -3.63339
   O       -7.33529         0.34377        -3.81014
   C       -8.05648        -1.62122        -2.62663
   C       -8.92864        -0.99342        -1.77137
   N       -9.09151         0.33317        -1.83986
   C       -9.92006         1.10074        -1.09002
   S      -10.95660         0.40721         0.11772
   C      -11.55471         1.99370         0.47690
   N      -12.52323         2.12203         1.48305
   O      -12.93406         3.24112         1.72656
   O      -12.87777         1.09804         2.03763
   C      -10.99199         2.98201        -0.28369
   C      -10.03960         2.49332        -1.19993
   C       -9.26689         3.29264        -2.11369
   C       -9.37413         4.62838        -2.24771
   C       -8.53567         5.38410        -3.13153
   C       -8.53961         6.72081        -3.25793
   C       -9.47495         7.62963        -2.52326
   C       -7.50810         7.40071        -4.13185
   N       -8.07926         8.30490        -5.09708
   C       -8.21945         9.62534        -4.88976
   C       -8.90897        10.47845        -5.69946
   C       -9.00645        11.85115        -5.42884
   C       -9.65684        12.77279        -6.21027
   C       -9.81275        14.15150        -5.94025
   C      -10.49831        14.83597        -6.89840
   C      -10.91188        14.03673        -7.98690
   S      -10.42436        12.38112        -7.74721
   C      -11.59098        14.45367        -9.12170
   C      -12.04853        15.75131        -9.41773
   C      -12.66460        15.85311       -10.63298
   C      -12.71338        14.64473       -11.35738
   S      -11.97754        13.35981       -10.43494
   C      -13.25731        14.47115       -12.61961
   C      -13.21797        13.27980       -13.32515
   C      -13.73053        13.02865       -14.58553
   C      -14.65814        13.75958       -15.39778
   C      -15.64900        14.61688       -14.96971
   C      -16.53847        15.28346       -15.83183
   N      -17.27507        15.87406       -16.48750
   C      -15.97166        14.84691       -13.61908
   N      -16.31643        15.03752       -12.53963
   C      -14.51726        13.27123       -16.77111
   C      -13.66918        12.13670       -16.76007
   C      -13.19283        11.90661       -15.37661
   O      -12.47450        11.00811       -14.98728
   C      -13.36331        11.43350       -17.89786
   C      -13.91015        11.87835       -19.10775
   C      -14.74509        13.01806       -19.10892
   C      -15.06396        13.72490       -17.95424
   S      -15.30014        13.40305       -20.71100
   C      -14.41616        12.04134       -21.34699
   C      -13.73961        11.33521       -20.41160
  Br      -14.46694        11.68317       -23.18870
   H       -5.47078        -0.66493        -5.81325
   H       -6.30382        -5.25473        -3.98244
   H       -3.75086        -1.96673        -7.60141
   H       -9.50616        -1.52945        -1.02958
   H       -8.51003         0.78246        -2.57088
   H      -11.26762         4.01316        -0.16443
   H       -8.53711         2.77420        -2.72157
   H      -10.09049         5.17387        -1.65456
   H       -7.82049         4.80711        -3.70431
   H      -10.47053         7.20028        -2.45087
   H       -9.55625         8.59163        -3.02448
   H       -9.10912         7.80774        -1.51133
   H       -6.91702         6.64769        -4.66072
   H       -6.83237         7.97922        -3.49221
   H       -8.60650         7.89134        -5.85247
   H       -7.69717        10.01410        -4.02447
   H       -9.40812        10.09764        -6.57975
   H       -8.54000        12.22202        -4.52465
   H       -9.41530        14.59488        -5.04414
   H      -10.70859        15.88899        -6.85511
   H      -11.91796        16.57411        -8.73817
   H      -13.08491        16.76009       -11.02909
   H      -13.69404        15.34992       -13.07142
   H      -12.63492        12.46681       -12.90228
   H      -12.72085        10.56772       -17.86009
   H      -15.70213        14.59137       -18.00625
   H      -13.14295        10.46806       -20.62886
*
