# ORCA input file
# SCF done       -219.288836075382          0.000318672158
! CAM-B3LYP def2-SVP def2/J RIJCOSX Grid4 TightSCF
%maxcore 5000
%tddft
    Mode sTDDFT
    Ethresh 5.0
    maxcore 5000
end

%pal
  nprocs 6
  end
* xyz 0 1
   C       -7.15609        -1.71605         3.06024
   C       -6.11764        -2.60796         3.07848
   C       -6.15359        -3.84955         3.74668
   N       -6.13449        -4.87211         4.26765
   C       -4.86399        -2.37606         2.47355
   N       -3.81482        -2.23317         2.02977
   C       -8.41757        -1.84947         3.77399
   C       -9.13328        -0.63190         3.66556
   C      -10.36323        -0.44141         4.24585
   C      -10.91462        -1.50504         4.96786
   C      -10.19519        -2.72068         5.06607
   C       -8.95112        -2.91300         4.47963
   S      -11.06346        -3.90337         5.99764
   C      -12.36033        -2.76387         6.24204
   C      -12.15714        -1.55987         5.65633
  Br      -13.86016        -3.27204         7.24623
   C       -8.35725         0.33463         2.85869
   O       -8.66771         1.47322         2.60075
   C       -7.15377        -0.41805         2.40443
   C       -6.34299        -0.03601         1.38555
   C       -6.38143         1.23597         0.70901
   C       -6.38151         1.22064        -0.69904
   C       -6.58296         2.35925        -1.44306
   C       -6.77029         3.59005        -0.81477
   C       -6.70494         3.64208         0.55503
   C       -6.48067         2.48832         1.32244
   N       -6.30363         2.84216         2.64562
   C       -5.79162         2.02167         3.70686
   C       -6.52816         4.18373         2.83590
   O       -6.47156         4.74617         3.90190
   C       -6.80644         4.81637         1.47690
   C       -8.15327         5.57723         1.43902
   C       -9.20546         4.89205         0.55690
   O       -9.65174         3.77696         0.65759
   N       -9.58237         5.79081        -0.40771
   C      -10.55409         5.49216        -1.42373
   C       -8.92047         7.00134        -0.27232
   C       -9.03026         8.14064        -1.03956
   C       -8.26101         9.26075        -0.69237
   C       -7.39345         9.18539         0.40134
   C       -7.28169         8.02952         1.15894
   C       -8.05231         6.93799         0.82334
   C       -8.41211        10.46371        -1.48633
   C       -7.95454        11.68663        -1.18341
   C       -8.20180        12.84272        -2.02118
   N       -7.76694        14.01678        -1.55020
   C       -8.00609        15.08571        -2.28560
   C       -8.68665        15.02767        -3.49032
   C       -9.10060        13.75600        -3.91415
   N       -8.84083        12.67769        -3.17486
   C       -9.80086        13.50928        -5.15565
   C      -10.49473        14.44417        -5.84512
   C      -11.19464        14.25437        -7.06312
   C      -11.11325        13.21829        -7.95433
   C      -11.85931        13.13558        -9.16368
   C      -11.56162        12.06090        -9.93852
   C      -10.55578        11.22603        -9.39340
   S      -10.02852        11.84059        -7.84627
   C      -10.00869        10.09139        -9.96217
   C      -10.33784         9.50753       -11.20610
   C       -9.58636         8.41387       -11.51400
   C       -8.62510         8.07736       -10.53181
   S       -8.72587         9.18670        -9.18646
   C       -7.72443         7.03381       -10.60088
   C       -6.77056         6.76808        -9.62312
   C       -5.83628         5.75658        -9.60410
   C       -5.68415         4.56959       -10.40142
   C       -6.67940         3.85097       -11.02257
   C       -6.45395         2.67280       -11.76043
   N       -6.32765         1.72189       -12.39236
   C       -8.05462         4.13242       -10.90573
   N       -9.18928         4.28306       -10.80799
   C       -4.29849         4.12269       -10.25624
   C       -3.68294         4.88402        -9.23142
   C       -4.64486         5.89155        -8.73550
   O       -4.48368         6.68840        -7.83634
   C       -2.38494         4.67591        -8.83593
   C       -1.65454         3.67801        -9.49155
   C       -2.27359         2.93404       -10.52273
   C       -3.59160         3.13759       -10.91651
   S       -1.18704         1.76354       -11.20746
   C        0.06622         2.27997       -10.11044
   C       -0.30708         3.27788        -9.27517
  Br        1.74966         1.45455       -10.17431
   H      -10.88152         0.49912         4.14439
   H       -8.44391        -3.85862         4.57576
   H      -12.85341        -0.74274         5.70574
   H       -5.69504        -0.77964         0.93549
   H       -6.27031         0.26868        -1.19714
   H       -6.60638         2.29904        -2.52005
   H       -6.94086         4.48451        -1.39499
   H       -4.98924         1.38409         3.33176
   H       -6.56643         1.39534         4.15449
   H       -5.40732         2.69401         4.47538
   H       -6.00732         5.54049         1.27962
   H       -8.53563         5.63534         2.46409
   H      -10.88477         4.46639        -1.26434
   H      -10.11133         5.58187        -2.41786
   H      -11.40958         6.16654        -1.34835
   H       -9.70103         8.18667        -1.88348
   H       -6.79041        10.04084         0.65839
   H       -6.60980         7.98832         2.00314
   H       -8.97989        10.36067        -2.40214
   H       -7.40254        11.90161        -0.28160
   H       -7.63695        16.02380        -1.88890
   H       -8.86068        15.91215        -4.07960
   H       -9.78889        12.47657        -5.47153
   H      -10.57651        15.43972        -5.42753
   H      -11.86639        15.05426        -7.35044
   H      -12.58919        13.88393        -9.41766
   H      -12.02395        11.85083       -10.88577
   H      -11.10944         9.90770       -11.83855
   H       -9.69096         7.83412       -12.41352
   H       -7.76124         6.42885       -11.49485
   H       -6.67440         7.48765        -8.81492
   H       -1.94382         5.26492        -8.04719
   H       -4.01827         2.54856       -11.71134
   H        0.33936         3.71610        -8.53686
*
