# ORCA input file
# SCF done       -190.194430283210          0.000388569768
! CAM-B3LYP def2-SVP def2/J RIJCOSX Grid4 TightSCF
%maxcore 5000
%tddft
    Mode sTDDFT
    Ethresh 5.0
    maxcore 5000
end

%pal
  nprocs 6
  end
* xyz 0 1
   C       -5.34440         0.29856        -5.95787
   C       -4.44772        -0.66906        -5.56801
   C       -3.82293        -1.57002        -6.45300
   N       -3.28020        -2.33440        -7.11696
   C       -4.00443        -0.90102        -4.25150
   N       -3.58589        -1.15393        -3.21041
   C       -5.75835         0.54634        -7.33743
   C       -6.64266         1.65193        -7.35123
   C       -7.20785         2.13774        -8.50361
   C       -6.88618         1.49881        -9.70656
   C       -6.00390         0.39441        -9.68426
   C       -5.43088        -0.09564        -8.51611
   S       -5.74341        -0.24778       -11.27842
   C       -6.80898         0.96145       -11.94292
   C       -7.33396         1.80304       -11.02151
  Br       -7.12875         0.99925       -13.79138
   C       -6.82440         2.13976        -5.96946
   O       -7.51619         3.08544        -5.63150
   C       -6.02137         1.26108        -5.11961
   C       -5.94064         1.30806        -3.74366
   C       -6.52378         2.17892        -2.82515
   S       -7.54360         3.54152        -3.20007
   C       -7.72390         3.93248        -1.51531
   C       -7.04436         3.01774        -0.69552
   C       -6.35764         2.05979        -1.42829
   C       -5.52641         0.99293        -0.78746
   C       -5.23679         1.32692         0.67243
   C       -6.53546         1.71515         1.39008
   N       -6.41016         1.87590         2.82855
   C       -7.06019         3.02747         0.80049
   C       -8.49568         5.08344        -1.24069
   C       -8.69192         5.69854        -0.04009
   C       -9.43621         6.86666         0.22449
   S       -9.53660         7.32054         1.90468
   C      -10.48848         8.72503         1.58561
   C      -10.72429         8.84532         0.20403
   C      -10.13653         7.79945        -0.56992
   C      -10.30989         7.83301        -1.96536
   C      -11.03050         8.82976        -2.57231
   C      -11.19805         8.83134        -4.05929
   C      -11.62098         9.86169        -1.79499
   C      -12.40920        10.94449        -2.46221
   C      -11.46061         9.85810        -0.43510
   C      -10.92922         9.58896         2.61277
   C      -10.74822         9.38362         3.94030
   C      -11.20721        10.30363         4.92868
   C      -11.13886        10.12425         6.26082
   C      -10.56613         8.90173         6.90968
   C      -11.67327        11.17943         7.19202
   N      -10.69858        11.52083         8.20191
   C      -10.96552        11.67857         9.49536
   C      -10.01882        11.94565        10.44760
   C      -10.26072        12.17365        11.80706
   C      -11.37457        11.99563        12.59835
   C      -12.58695        11.23461        12.48632
   C      -12.79736        10.08525        11.75394
   C      -13.99996         9.35455        11.75052
   N      -14.96070         8.72823        11.67954
   C      -11.81839         9.47438        10.95766
   N      -11.05183         8.95364        10.27622
   C      -13.52195        11.73965        13.49364
   C      -12.83013        12.63732        14.34163
   C      -11.43956        12.77413        13.85739
   O      -10.54646        13.42001        14.36304
   C      -13.43042        13.25918        15.40745
   C      -14.78515        12.99303        15.63917
   C      -15.47129        12.10735        14.77721
   C      -14.85925        11.46868        13.70432
   S      -17.13957        11.93441        15.23421
   C      -16.89316        13.03645        16.56268
   C      -15.62930        13.51135        16.65990
  Br      -18.33019        13.45878        17.69314
   H       -7.87739         2.98321        -8.47976
   H       -4.76548        -0.94160        -8.55420
   H       -8.00923         2.60530       -11.25701
   H       -5.33490         0.53856        -3.28558
   H       -4.58486         0.86285        -1.32548
   H       -6.06428         0.04068        -0.84384
   H       -4.53196         2.16089         0.72908
   H       -4.77915         0.46300         1.15950
   H       -7.27933         0.92701         1.22202
   H       -5.68473         2.55275         3.04438
   H       -6.15003         0.99772         3.26334
   H       -6.43596         3.84897         1.16856
   H       -8.07549         3.19030         1.16522
   H       -8.94426         5.50729        -2.12551
   H       -8.23157         5.27415         0.83949
   H       -9.87129         7.06912        -2.58396
   H      -10.68340         7.98540        -4.50709
   H      -10.79725         9.74834        -4.48977
   H      -12.25308         8.77503        -4.32545
   H      -11.78794        11.48976        -3.17189
   H      -12.79484        11.64787        -1.72864
   H      -13.24914        10.52340        -3.01346
   H      -11.90608        10.64263         0.15799
   H      -11.45834        10.47641         2.29122
   H      -10.23842         8.48946         4.26913
   H      -11.65707        11.21369         4.54952
   H       -9.50011         8.81276         6.70001
   H      -11.04900         8.00518         6.52474
   H      -10.70383         8.92728         7.98781
   H      -12.57097        10.80488         7.69617
   H      -11.95017        12.07750         6.62430
   H       -9.73029        11.51094         7.91306
   H      -12.01592        11.67106         9.75303
   H       -8.99440        12.05291        10.11642
   H       -9.44782        12.65651        12.34312
   H      -12.87561        13.93114        16.04317
   H      -15.42665        10.80512        13.07302
   H      -15.30323        14.19958        17.41821
*
