# ORCA input file
# SCF done       -248.067755359531          0.000952340194
! CAM-B3LYP def2-SVP def2/J RIJCOSX Grid4 TightSCF
%maxcore 5000
%tddft
    Mode sTDDFT
    Ethresh 5.0
    maxcore 5000
end

%pal
  nprocs 6
  end
* xyz 0 1
   C       -5.10924       -12.42129       -10.64120
   C       -5.13614       -12.63506       -12.00833
   C       -4.05150       -12.19675       -12.77250
   C       -4.05766       -12.40958       -14.17326
   N       -4.06749       -12.58499       -15.30448
   C       -2.95199       -11.54994       -12.17814
   C       -1.86632       -11.11805       -12.97678
   N       -0.97563       -10.76066       -13.60168
   C       -2.92886       -11.33570       -10.79847
   C       -4.00343       -11.77482       -10.05670
   C       -4.21478       -11.67821        -8.59669
   O       -3.45176       -11.16388        -7.79563
   C       -5.49888       -12.31641        -8.33028
   C       -6.06746       -12.75784        -9.58412
   C       -7.27934       -13.36810        -9.79076
   C       -7.76260       -13.76227       -11.05640
   N       -8.20837       -14.10594       -12.05655
   C       -8.21808       -13.68224        -8.78590
   N       -9.02628       -13.96241        -8.01918
   C       -6.06806       -12.49225        -7.08363
   C       -5.61534       -12.12346        -5.82209
   S       -4.12163       -11.29911        -5.45328
   C       -4.40583       -11.34977        -3.75418
   C       -5.66435       -11.92775        -3.45496
   C       -6.33706       -12.38439        -4.62418
   C       -7.59384       -13.00033        -4.50610
   C       -8.17209       -13.12626        -3.26790
   C       -9.51220       -13.79152        -3.10279
   F      -10.00126       -14.26953        -4.24996
   F       -9.45199       -14.83079        -2.25098
   F      -10.43658       -12.94784        -2.61257
   C       -7.54054       -12.60675        -2.11171
   C       -8.15250       -12.68717        -0.83814
   N       -8.59666       -12.73584         0.21627
   C       -6.30116       -12.00496        -2.21172
   C       -3.41096       -10.85115        -2.88093
   C       -3.23400       -11.23120        -1.58859
   C       -2.27826       -10.70943        -0.65966
   C       -2.18056       -11.31395         0.58159
   C       -1.30848       -10.81000         1.55927
   C       -1.04975       -11.21575         2.86483
   C       -1.61206       -12.35985         3.63259
   C       -3.14707       -12.46589         3.54182
   N       -3.66183       -12.95190         4.80754
   C       -0.93212       -13.67556         3.19621
   N        0.47569       -13.62504         3.54160
   C       -0.05637       -10.30622         3.38732
   C        0.55814       -10.27658         4.58329
   C        1.55003        -9.21291         4.91762
   C        1.81131        -8.23451         3.81858
   C        1.19831        -8.29399         2.62224
   C        0.25976        -9.31923         2.34846
   C       -0.49741        -9.63850         1.24057
   C       -0.60178        -9.04970        -0.04218
   C       -1.46096        -9.56650        -0.95450
   C        2.78163        -9.86619         5.48142
   C        4.02572        -9.70025         5.01673
   C        5.17967       -10.32185         5.58272
   S        5.06929       -11.51749         6.81710
   C        6.79004       -11.72546         6.92612
   C        7.43665       -10.85568         6.02228
   C        6.52024       -10.07564         5.25078
   C        7.00908        -9.16225         4.29697
   C        8.35795        -9.03285         4.11714
   C        8.90784        -8.06578         3.10445
   F        7.93807        -7.39702         2.46076
   F        9.69942        -7.13787         3.66263
   F        9.63418        -8.67976         2.15739
   C        9.27521        -9.80845         4.87972
   C       10.67058        -9.66822         4.68476
   N       11.80384        -9.57931         4.54872
   C        8.81555       -10.70847         5.81662
   C        7.41554       -12.60127         7.82945
   C        6.83199       -13.55997         8.61166
   C        5.51684       -14.04344         8.48700
   C        4.84600       -14.83844         9.37615
   C        3.69322       -15.65435         8.93107
   O        3.09232       -15.56403         7.88523
   C        3.47135       -16.63263        10.02371
   C        2.58766       -17.68922        10.06691
   C        2.58743       -18.50241        11.20225
   C        3.47307       -18.23649        12.26373
   C        4.35701       -17.15602        12.21528
   C        4.35090       -16.35200        11.08927
   C        5.12183       -15.15242        10.75644
   C        5.79690       -14.36104        11.64994
   C        6.00716       -14.70292        13.00189
   N        6.21689       -14.95267        14.10181
   C        6.24676       -13.06090        11.33602
   N        6.56658       -11.97831        11.13031
   C        3.46998       -19.08247        13.40070
   N        3.47681       -19.76298        14.32106
   C        1.69748       -19.60064        11.28170
   N        0.96967       -20.48358        11.32399
   H       -5.95865       -13.12722       -12.50189
   H       -2.09312       -10.84207       -10.32627
   H       -7.01739       -13.00853        -7.07161
   H       -8.11895       -13.37112        -5.37302
   H       -5.85530       -11.57076        -1.33188
   H       -2.70808       -10.16827        -3.33879
   H       -3.84552       -12.03591        -1.20287
   H       -2.78882       -12.17876         0.79995
   H       -1.37507       -12.21592         4.68972
   H       -3.42902       -13.10175         2.68654
   H       -3.56802       -11.47036         3.37804
   H       -3.36614       -13.90777         4.97281
   H       -4.67493       -12.93320         4.81598
   H       -1.11780       -13.83362         2.12025
   H       -1.37866       -14.50672         3.74757
   H        0.96127       -12.95734         2.95187
   H        0.91150       -14.53147         3.42048
   H        0.36769       -11.02377         5.34021
   H        1.10868        -8.64629         5.75876
   H        2.50556        -7.44022         4.04710
   H        1.40895        -7.55897         1.85940
   H        0.00200        -8.18624        -0.27874
   H       -1.54949        -9.10654        -1.92560
   H        2.60666       -10.52182         6.32488
   H        4.20513        -9.05175         4.17159
   H        6.32563        -8.56782         3.71200
   H        9.52538       -11.28928         6.38433
   H        8.48223       -12.45999         7.93970
   H        7.46411       -14.03838         9.34807
   H        5.00420       -13.89116         7.54217
   H        1.91592       -17.88430         9.24481
   H        5.02453       -16.98150        13.04454
*
