# ORCA input file
# SCF done       -209.593024831138          0.000419166164
! CAM-B3LYP def2-SVP def2/J RIJCOSX Grid4 TightSCF
%maxcore 5000
%tddft
    Mode sTDDFT
    Ethresh 5.0
    maxcore 5000
end

%pal
  nprocs 6
  end
* xyz 0 1
   C       -1.75411        -0.16620        -7.69442
   C       -1.26283        -1.46536        -7.64757
   C        0.15145        -1.74730        -7.75570
   N        0.57049        -3.02217        -7.83949
   C       -0.29991        -3.98834        -7.66675
   C       -1.68331        -3.70264        -7.41006
   N       -2.14009        -2.47878        -7.45645
   C       -2.57709        -4.76474        -7.12600
   N       -3.28425        -5.62966        -6.87021
   C        0.12723        -5.33555        -7.72139
   N        0.42928        -6.44112        -7.71803
   C        1.10119        -0.70294        -7.79889
   C        0.59140         0.60808        -7.86654
   C       -0.83561         0.86826        -7.82854
   N       -1.09880         2.17945        -7.88830
   S        0.28796         2.97831        -7.97155
   N        1.29504         1.73802        -7.92374
   C        2.51879        -0.92927        -7.75836
   N        3.36016        -0.16577        -8.42682
   C        4.58839        -0.68131        -8.21407
   C        4.51457        -1.87675        -7.35842
   C        5.85924        -2.43448        -7.12033
   O        6.16878        -3.40004        -6.46048
   C        6.72030        -1.50947        -7.88226
   C        5.90609        -0.45780        -8.52990
   N        6.69855         0.41063        -9.20500
   C        7.92100        -0.02312        -9.01687
   C        8.00823        -1.21200        -8.19357
   C        3.20159        -2.02886        -7.02561
   C        2.56740        -3.01475        -6.20266
   C        1.55980        -2.74184        -5.34727
   C        0.70533        -3.73596        -4.75282
   C       -0.60017        -3.36480        -4.46924
   C       -1.55613        -4.34009        -4.16147
   C       -2.94058        -4.23898        -3.98468
   C       -3.74154        -2.99448        -4.07275
   C       -4.95102        -3.11234        -5.03260
   N       -4.94437        -1.96229        -5.91970
   C       -4.20267        -2.49099        -2.68232
   N       -5.07079        -3.44996        -2.02843
   C       -3.42869        -5.57946        -3.79947
   C       -4.68173        -6.05116        -3.62404
   C       -4.94487        -7.50611        -3.52314
   C       -3.72871        -8.37486        -3.54566
   C       -2.48278        -7.88529        -3.72193
   C       -2.28484        -6.49677        -3.86025
   C       -1.14851        -5.72940        -4.08272
   C        0.20609        -6.06928        -4.27065
   C        1.10091        -5.09859        -4.60562
   C       -5.76237        -7.95034        -4.71033
   C       -6.81272        -8.77500        -4.58756
   C       -7.59661        -9.24782        -5.68326
   N       -7.42086        -8.85204        -6.93281
   C       -8.37953        -9.46480        -7.65520
   C       -9.23907       -10.30602        -6.80710
   C      -10.28502       -10.96175        -7.61111
   O      -11.16352       -11.70830        -7.23786
   C       -9.99560       -10.47071        -8.96961
   C       -8.83058        -9.56000        -8.95180
   N       -8.56337        -9.10252       -10.19716
   C       -9.46621        -9.66086       -10.96918
   C      -10.39031       -10.52640       -10.26863
   C       -8.73830       -10.18993        -5.53480
   C       -9.11827       -10.76261        -4.29591
   C      -10.24219       -11.48391        -4.05576
   C      -10.62579       -11.95578        -2.76267
   C      -10.02114       -11.57740        -1.53268
   C      -10.44979       -12.13978        -0.26681
   N       -9.81809       -11.78892         0.87619
   C       -8.83417       -10.93301         0.82962
   C       -8.44925       -10.32710        -0.41246
   N       -9.04921       -10.65863        -1.53162
   C       -7.42086        -9.36246        -0.52240
   N       -6.57959        -8.59987        -0.68779
   C       -8.14509       -10.57304         2.01620
   N       -7.54742       -10.24063         2.93492
   C      -11.49965       -13.04635        -0.18708
   C      -12.13519       -13.39748        -1.37195
   C      -11.70469       -12.85757        -2.64607
   N      -12.44049       -13.33303        -3.65299
   S      -13.54190       -14.33289        -3.07097
   N      -13.16592       -14.24099        -1.51767
   H       -2.81026         0.02366        -7.59907
   H        8.75459         0.49359        -9.46013
   H        8.91370        -1.71607        -7.91890
   H        2.93476        -4.02552        -6.31858
   H        1.24505        -1.71147        -5.22238
   H       -0.89252        -2.32573        -4.55084
   H       -3.10113        -2.20356        -4.47593
   H       -5.87396        -3.09346        -4.44981
   H       -4.90300        -4.06980        -5.57166
   H       -5.80904        -1.91405        -6.44637
   H       -4.17819        -2.04422        -6.58397
   H       -4.76649        -1.57064        -2.84732
   H       -3.30484        -2.24605        -2.09255
   H       -4.53026        -4.20253        -1.61681
   H       -5.60686        -3.00794        -1.29199
   H       -5.53226        -5.38939        -3.56710
   H       -5.52047        -7.70770        -2.60743
   H       -3.90421        -9.43437        -3.44360
   H       -1.62820        -8.54499        -3.74921
   H        0.52004        -7.09682        -4.17291
   H        2.13671        -5.35199        -4.76551
   H       -5.42991        -7.62131        -5.68381
   H       -7.11327        -9.09856        -3.59997
   H       -9.47574        -9.45837       -12.02617
   H      -11.19624       -11.07285       -10.71710
   H       -8.44968       -10.57910        -3.47016
   H      -10.91003       -11.74679        -4.86674
   H      -11.79412       -13.46055         0.76184
*
