# ORCA input file
# SCF done       -208.981797080597          0.000941646301
! CAM-B3LYP def2-SVP def2/J RIJCOSX Grid4 TightSCF
%maxcore 5000
%tddft
    Mode sTDDFT
    Ethresh 5.0
    maxcore 5000
end

%pal
  nprocs 6
  end
* xyz 0 1
   C        8.33493        -1.32794         7.76304
   O        9.60469        -1.20027         8.18129
   C        9.64234        -1.45381         9.47507
   C        8.37985        -1.74759         9.94289
   N        8.07097        -2.00327        11.29464
   O        8.98910        -2.00742        12.08432
   O        6.90178        -2.18622        11.58822
   C        7.50949        -1.68207         8.80042
   N        6.14225        -1.83449         8.70037
   C        5.27584        -2.64340         9.35481
   C        3.91086        -2.31031         9.29216
   C        3.29273        -1.21269         8.53797
   O        3.85373        -0.41587         7.81083
   N        1.93197        -1.28058         8.80612
   C        1.62468        -2.34473         9.67750
   O        0.51671        -2.61000        10.05701
   C        2.91576        -3.00455         9.97616
   C        3.21110        -4.09232        10.77533
   C        4.54536        -4.48262        10.79286
   C        5.55617        -3.82458        10.08477
   C        6.84953        -4.51438        10.13927
   O        7.84698        -4.27444         9.51482
   S        6.74646        -5.90105        11.27035
   C        4.99701        -5.65712        11.56438
   O        4.33758        -6.36278        12.26584
   C        0.91287        -0.47162         8.30977
   C        1.07170         0.56023         7.47464
   C       -0.00123         1.37929         6.94821
   C       -1.32583         1.19141         7.27818
   C       -2.32349         2.00559         6.71074
   C       -3.70810         2.00466         6.85825
   C       -4.57740         1.13513         7.69606
   C       -4.24822        -0.36516         7.57501
   N       -5.46639        -1.12378         7.78287
   C       -4.53154         1.60785         9.16384
   N       -5.50685         0.87691         9.95710
   C       -4.21058         3.09170         6.05126
   C       -5.46504         3.54356         5.86910
   C       -5.74296         4.73168         5.01548
   C       -4.54473         5.32202         4.35211
   C       -3.29742         4.84324         4.53310
   C       -3.07637         3.73873         5.38737
   C       -1.93307         3.06622         5.79350
   C       -0.57037         3.24590         5.47861
   C        0.35713         2.42241         6.03737
   C       -6.48750         5.70603         5.89839
   C       -6.02105         6.89146         6.26433
   C       -6.76025         7.79766         7.13541
   C       -7.24543         7.42693         8.38961
   C       -7.08450         6.15936         9.13905
   O       -6.53495         5.13550         8.80648
   N       -7.71351         6.37026        10.36791
   C       -8.27945         7.65103        10.46851
   O       -8.88338         8.05352        11.42980
   C       -7.95175         8.32886         9.20294
   C       -8.21579         9.62849         8.81608
   C       -7.72759        10.01099         7.57208
   C       -7.01529         9.12595         6.75472
   C       -6.59219         9.69588         5.47024
   O       -5.99868         9.15728         4.57930
   S       -7.12386        11.41278         5.39214
   C       -7.91030        11.35750         7.01004
   O       -8.47170        12.29036         7.50192
   C       -7.81944         5.49090        11.44222
   C       -7.16872         4.32766        11.56729
   C       -7.25364         3.45452        12.69686
   O       -6.63872         2.23463        12.58370
   C       -6.80665         1.55890        13.70383
   C       -7.53032         2.31061        14.60513
   N       -7.87098         1.93399        15.91529
   O       -7.52762         0.83415        16.29437
   O       -8.48046         2.74428        16.59619
   C       -7.82828         3.56016        13.96262
   N       -8.55984         4.55019        14.51850
   H        8.12618        -1.15057         6.72756
   H       10.57919        -1.41523         9.99552
   H        5.67703        -1.16773         8.08294
   H        2.46445        -4.62575        11.34000
   H       -0.04908        -0.79002         8.68682
   H        2.06640         0.81732         7.14154
   H       -1.61201         0.42029         7.97277
   H       -5.61061         1.24206         7.35056
   H       -3.45460        -0.62890         8.29025
   H       -3.88338        -0.57577         6.56461
   H       -5.79601        -0.94871         8.72810
   H       -5.29210        -2.11714         7.67997
   H       -4.69000         2.69939         9.17663
   H       -3.53892         1.40834         9.57685
   H       -6.44545         1.14831         9.68003
   H       -5.40283         1.10636        10.93900
   H       -6.31337         3.09348         6.36410
   H       -6.45108         4.42147         4.22945
   H       -4.73171         6.16832         3.70882
   H       -2.45536         5.29845         4.03256
   H       -0.27721         4.03069         4.79718
   H        1.40357         2.54687         5.79981
   H       -7.44806         5.36006         6.25410
   H       -5.08410         7.26486         5.87642
   H       -8.76234        10.31585         9.44161
   H       -8.49849         5.87388        12.18930
   H       -6.52711         3.97989        10.77179
   H       -6.39480         0.57282        13.79013
   H       -8.77301         4.43156        15.50069
   H       -8.49094         5.48464        14.15822
*
