# ORCA input file
# SCF done       -232.353188636103          0.000295989931
! CAM-B3LYP def2-SVP def2/J RIJCOSX Grid4 TightSCF
%maxcore 5000
%tddft
    Mode sTDDFT
    Ethresh 5.0
    maxcore 5000
end

%pal
  nprocs 6
  end
* xyz 0 1
   C        2.07600         4.44312         2.20860
   C        1.24641         3.87070         3.13286
   F        0.47996         4.65477         3.91011
   C        1.15926         2.48239         3.30757
   C        1.93114         1.66810         2.52698
   C        2.80517         2.20509         1.55895
   C        2.88024         3.61994         1.39735
   C        3.75764         4.18301         0.44082
   C        4.53358         3.35829        -0.32674
   C        4.44154         1.94301        -0.17322
   C        3.60501         1.37357         0.74551
   C        5.34088         1.28829        -1.13457
   O        5.54074         0.10008        -1.28180
   C        5.90049         2.39375        -1.96376
   C        5.54790         3.65067        -1.33702
   C        6.21459         4.83499        -1.48162
   C        7.42232         4.96964        -2.20532
   N        8.48637         5.11130        -2.61413
   C        5.86760         6.01303        -0.78829
   N        5.61136         6.98980        -0.24338
   C        6.46665         2.09673        -3.16709
   C        6.67000         2.96535        -4.26782
   N        6.32026         4.24935        -4.23292
   C        6.72356         4.78063        -5.39908
   C        7.39800         3.77814        -6.22939
   C        7.86500         4.37415        -7.49293
   O        8.45393         3.84034        -8.40583
   C        7.42535         5.77856        -7.36112
   C        6.72566         5.98056        -6.07410
   N        6.29024         7.25651        -5.95855
   C        6.66883         7.84837        -7.06693
   C        7.37348         6.98047        -7.99044
   C        7.32254         2.59492        -5.54555
   C        7.81175         1.30793        -5.94019
   C        7.21650         0.14592        -5.61182
   C        7.72972        -1.18250        -5.83272
   C        7.20249        -2.19161        -5.05145
   C        7.75952        -3.48084        -5.07764
   C        7.50275        -4.62618        -4.32593
   C        6.42703        -4.95364        -3.34839
   C        5.73470        -3.75969        -2.67394
   N        6.70530        -2.79932        -2.18709
   C        5.36561        -5.85768        -4.05974
   N        4.81777        -5.34297        -5.29086
   C        8.42430        -5.64003        -4.79120
   C        8.61487        -6.91311        -4.39651
   C        9.52083        -7.82089        -5.14408
   C       10.38349        -7.14790        -6.16790
   C       10.22021        -5.85215        -6.50946
   C        9.24168        -5.06475        -5.86646
   C        8.84987        -3.74304        -6.00832
   C        9.32273        -2.71110        -6.84790
   C        8.78773        -1.46441        -6.74977
   C        8.70900        -8.78226        -5.98126
   C        7.49281        -8.50871        -6.47996
   C        6.77067        -9.45686        -7.26362
   N        7.28611       -10.62432        -7.61799
   C        6.31971       -11.26382        -8.30065
   C        5.09663       -10.44049        -8.40151
   C        4.01533       -11.21873        -9.03713
   O        2.84741       -10.92359        -9.18158
   C        4.69200       -12.47488        -9.40109
   C        6.09012       -12.46565        -8.92294
   N        6.70691       -13.63436        -9.22437
   C        5.80065       -14.34770        -9.84785
   C        4.51846       -13.68728        -9.98704
   C        5.38465        -9.26639        -7.74999
   C        4.57704        -8.10521        -7.54992
   C        3.58755        -7.75474        -8.40330
   C        3.42657        -8.33925        -9.69152
   C        2.29133        -8.52725       -10.40653
   C        2.37019        -8.87653       -11.85083
   O        3.37246        -9.15483       -12.46956
   C        0.99031        -8.75850       -12.35561
   C        0.53055        -8.88942       -13.63455
   C       -0.84584        -8.70961       -13.89515
   C       -1.72246        -8.38797       -12.81813
   C       -3.09323        -8.20342       -13.08533
   C       -3.55192        -8.34017       -14.36570
   C       -2.70647        -8.65812       -15.43760
   C       -1.37307        -8.83848       -15.19668
   F       -4.86127        -8.16538       -14.62257
   C       -1.21952        -8.26445       -11.50208
   C        0.11641        -8.45529       -11.27085
   C        0.89501        -8.44248       -10.03382
   C        0.38155        -8.54957        -8.77091
   C        1.12680        -8.80878        -7.60005
   N        1.63025        -9.04700        -6.59670
   C       -1.00057        -8.50793        -8.48667
   N       -2.10987        -8.45461        -8.19637
   H        2.11933         5.51587         2.10375
   H        0.48657         2.08840         4.05273
   H        1.88128         0.59586         2.64330
   H        3.78960         5.25549         0.33378
   H        3.55482         0.30008         0.85210
   H        6.71104         1.05189        -3.31052
   H        6.45275         8.89048        -7.22649
   H        7.75720         7.27031        -8.94857
   H        8.70157         1.32522        -6.55499
   H        6.27740         0.17607        -5.07413
   H        6.41565        -1.95860        -4.35769
   H        6.87436        -5.56837        -2.55759
   H        5.08112        -4.16726        -1.88135
   H        5.08309        -3.25106        -3.39056
   H        7.27387        -3.20746        -1.45355
   H        6.24800        -1.97747        -1.80577
   H        4.53799        -6.03926        -3.37067
   H        5.83397        -6.82008        -4.28641
   H        4.22251        -4.54084        -5.12289
   H        5.55914        -5.05191        -5.92120
   H        8.07026        -7.35193        -3.57215
   H       10.13360        -8.40258        -4.44582
   H       11.11245        -7.77127        -6.66058
   H       10.84341        -5.40242        -7.26834
   H       10.11743        -2.91923        -7.54872
   H        9.15143        -0.66882        -7.38100
   H        9.16842        -9.72849        -6.22672
   H        7.00316        -7.56647        -6.28010
   H        6.03737       -15.33622       -10.20167
   H        3.64999       -14.10297       -10.45827
   H        4.72681        -7.52246        -6.65157
   H        2.91484        -6.95428        -8.12515
   H        4.33757        -8.64679       -10.20060
   H        1.21015        -9.12844       -14.43892
   H       -3.77401        -7.96181       -12.28405
   H       -3.12583        -8.75352       -16.42660
   H       -0.70171        -9.08412       -16.00575
   H       -1.90631        -8.01563       -10.70868
*
