# ORCA input file
# SCF done       -232.018170069580          0.000605768643
! CAM-B3LYP def2-SVP def2/J RIJCOSX Grid4 TightSCF
%maxcore 5000
%tddft
    Mode sTDDFT
    Ethresh 5.0
    maxcore 5000
end

%pal
  nprocs 6
  end
* xyz 0 1
   C       11.12489        -5.21549         9.37351
   C       10.38709        -6.36438         9.30677
   F        9.75055        -6.80755        10.40638
   C       10.26343        -7.11113         8.12720
   C       10.90439        -6.67776         7.00013
   C       11.67961        -5.50012         7.01246
   C       11.78966        -4.75260         8.22122
   C       12.55113        -3.56117         8.25540
   C       13.18332        -3.13595         7.11832
   C       13.08695        -3.89888         5.91881
   C       12.35228        -5.04749         5.85554
   C       13.89167        -3.25210         4.86562
   O       14.00833        -3.58316         3.70753
   C       14.58835        -2.12153         5.54120
   C       13.99034        -1.94858         6.84875
   C       13.96506        -0.79492         7.58764
   C       14.54176         0.41884         7.16233
   N       14.95427         1.44093         6.84224
   C       13.28175        -0.66432         8.81343
   N       12.75571        -0.51390         9.82264
   C       15.63886        -1.53117         4.91578
   C       16.68066        -0.71354         5.44504
   C       17.13276        -0.73408         6.74051
   S       18.48507         0.27053         7.03254
   C       18.47852         0.80340         5.37666
   C       17.46540         0.18230         4.63185
   C       17.29889         0.50791         3.28468
   C       18.10934         1.44129         2.65862
   C       19.17245         2.02249         3.39627
   C       19.33623         1.70159         4.75741
   S       20.69529         2.51679         5.46328
   C       21.06903         3.23737         3.93684
   C       20.20674         2.89880         2.95470
   C       17.82124         1.78651         1.27889
   C       17.94124         3.01151         0.74315
   C       17.59619         3.39255        -0.60826
   C       17.53896         4.72947        -0.92636
   C       17.15763         5.14465        -2.21929
   C       16.99408         6.40938        -2.76571
   C       17.23546         7.69864        -2.05388
   C       18.60145         8.31773        -2.41932
   N       18.69017         8.60785        -3.84137
   C       16.12379         8.74043        -2.25839
   N       16.12815         9.66950        -1.13871
   C       16.55950         6.21771        -4.13113
   C       16.25282         7.09350        -5.10695
   C       15.79941         6.63745        -6.45287
   C       15.77716         5.15557        -6.64037
   C       16.08655         4.29286        -5.65610
   C       16.47392         4.77091        -4.38139
   C       16.84166         4.13085        -3.21614
   C       16.94588         2.76262        -2.87411
   C       17.30847         2.41206        -1.61554
   C       16.62482         7.33588        -7.51004
   C       17.72060         6.80294        -8.03910
   C       18.50550         7.42543        -9.09253
   C       19.86241         7.37737        -9.15190
   S       20.54244         8.17184       -10.52614
   C       18.95564         8.56582       -11.10011
   C       17.95122         8.10525       -10.23120
   C       16.60673         8.23251       -10.60427
   C       16.24339         8.79089       -11.81638
   C       17.25325         9.33661       -12.64835
   C       18.60416         9.20580       -12.28226
   S       19.66877         9.88461       -13.47394
   C       18.30992        10.37646       -14.42485
   C       17.12177        10.03555       -13.88338
   C       14.84715         8.70506       -12.21994
   C       14.37775         8.28365       -13.41039
   C       15.13021         7.82694       -14.53840
   C       16.33430         7.20170       -14.60681
   C       17.11117         7.29653       -15.87778
   O       16.68618         7.61051       -16.96535
   C       18.50726         7.01918       -15.49192
   C       19.64807         7.16635       -16.22692
   C       20.89716         6.90752       -15.61946
   C       20.93795         6.48060       -14.26022
   C       22.18669         6.24664       -13.65322
   C       23.32978         6.42862       -14.38017
   C       23.31125         6.83991       -15.71981
   C       22.10704         7.07365       -16.32356
   F       24.52462         6.20800       -13.80210
   C       19.73890         6.30953       -13.53214
   C       18.54223         6.59026       -14.13439
   C       17.18053         6.57672       -13.61401
   C       16.77136         5.94748       -12.46742
   C       15.42202         5.80948       -12.08773
   N       14.34090         5.64571       -11.73878
   C       17.64230         5.31144       -11.56142
   N       18.30210         4.80222       -10.77108
   H       11.19426        -4.66378        10.29797
   H        9.66670        -8.00941         8.13454
   H       10.82458        -7.23595         6.07944
   H       12.62236        -3.01842         9.18476
   H       12.28498        -5.60506         4.93338
   H       15.73885        -1.78956         3.86581
   H       16.76953        -1.34873         7.54216
   H       16.49701         0.04980         2.72560
   H       21.92814         3.87555         3.86826
   H       20.31537         3.22932         1.93851
   H       17.39250         0.98286         0.69552
   H       18.26399         3.82782         1.37683
   H       17.76912         5.47014        -0.17247
   H       17.27665         7.48049        -0.98102
   H       19.39670         7.63907        -2.06820
   H       18.68430         9.26195        -1.87653
   H       18.77222         7.74456        -4.36886
   H       19.51406         9.16706        -4.03117
   H       15.15867         8.22254        -2.39130
   H       16.33854         9.31861        -3.15796
   H       15.84389         9.19659        -0.28651
   H       15.47377        10.42612        -1.30381
   H       16.34452         8.15923        -4.96518
   H       14.76550         7.00157        -6.57321
   H       15.48880         4.81010        -7.62175
   H       16.04809         3.22652        -5.82544
   H       16.73333         2.01061        -3.62016
   H       17.39736         1.36822        -1.35805
   H       16.30225         8.32889        -7.78961
   H       18.07391         5.84011        -7.69465
   H       20.52516         6.91855        -8.44462
   H       15.84491         7.80511        -9.97017
   H       18.48870        10.90116       -15.34243
   H       16.17558        10.28033       -14.33024
   H       14.12771         8.97103       -11.45618
   H       13.30927         8.34179       -13.57690
   H       14.70303         8.07214       -15.50786
   H       19.59992         7.48951       -17.25607
   H       22.23727         5.93098       -12.62307
   H       24.24558         6.96498       -16.24372
   H       22.06765         7.39357       -17.35398
   H       19.79775         5.98603       -12.50531
*
