# ORCA input file
# SCF done       -212.684283581755          0.000831269053
! CAM-B3LYP def2-SVP def2/J RIJCOSX Grid4 TightSCF
%maxcore 5000
%tddft
    Mode sTDDFT
    Ethresh 5.0
    maxcore 5000
end

%pal
  nprocs 6
  end
* xyz 0 1
   C        2.98933        -5.17264        -4.26807
   C        2.07272        -6.14902        -4.54431
   F        2.49574        -7.36169        -4.93616
   C        0.69090        -5.93590        -4.43363
   C        0.23961        -4.70866        -4.03527
   C        1.14058        -3.66492        -3.73779
   C        2.54271        -3.90209        -3.85483
   C        3.46581        -2.87519        -3.55460
   C        3.00150        -1.65202        -3.14746
   C        1.59819        -1.41539        -3.04831
   C        0.68520        -2.39156        -3.33231
   C        1.35808        -0.02244        -2.64239
   O        0.31310         0.52902        -2.40924
   C        2.71845         0.61664        -2.65170
   C        3.71115        -0.44568        -2.75000
   C        5.02290        -0.36805        -2.37688
   C        5.60959         0.77364        -1.79548
   N        6.11825         1.66771        -1.28575
   C        5.93104        -1.44675        -2.46669
   N        6.71159        -2.28424        -2.53165
   C        2.82010         1.95139        -2.75133
   C        3.99753         2.74575        -3.05471
   C        4.35628         3.80922        -2.22415
   C        3.72402         4.24121        -0.95640
   O        2.72577         3.83305        -0.42727
   N        4.54428         5.25891        -0.45303
   C        5.62610         5.53944        -1.29537
   O        6.46152         6.38101        -1.12307
   C        5.49535         4.58257        -2.43060
   C        6.32783         4.37812        -3.51510
   C        5.96310         3.34899        -4.37495
   C        4.84346         2.54275        -4.15982
   C        4.64753         1.50548        -5.19453
   O        3.77735         0.68674        -5.26911
   S        5.96636         1.61428        -6.40201
   C        6.75072         3.00909        -5.57938
   O        7.73906         3.53900        -5.97785
   C        4.27097         5.83613         0.78169
   C        5.10156         6.61837         1.48382
   C        4.75198         7.09101         2.78967
   C        5.65003         7.65034         3.61921
   C        5.36433         8.01634         4.98680
   C        4.19797         8.68046         5.39704
   C        3.12682         9.31168         4.58317
   O        2.97896         9.32955         3.39105
   N        2.26165         9.91989         5.50726
   C        2.66423         9.70636         6.83573
   O        2.06744        10.08525         7.80366
   C        3.93582         8.95423         6.74146
   C        4.80218         8.60538         7.76053
   C        5.98312         7.99000         7.36506
   C        6.26541         7.70793         6.03037
   C        7.56142         7.03159         5.82667
   O        8.04656         6.64209         4.80787
   S        8.38160         6.83413         7.41963
   C        7.03234         7.58528         8.32698
   O        7.01682         7.71548         9.51219
   C        1.22857        10.79437         5.22699
   C        0.99458        11.35225         4.02874
   C        0.03420        12.39056         3.85694
   C        0.07165        13.34851         2.89819
   C       -1.12169        14.20232         2.63463
   O       -2.10745        14.29554         3.32788
   C       -0.85391        14.85015         1.33792
   C       -1.66959        15.66164         0.60271
   C       -1.21012        16.16317        -0.63496
   C        0.08960        15.79999        -1.09472
   C        0.53980        16.29680        -2.33354
   C       -0.27435        17.11794        -3.06298
   C       -1.55381        17.48923        -2.62641
   C       -2.00790        17.01366        -1.42794
   F        0.15412        17.59482        -4.24474
   C        0.91455        14.96068        -0.31068
   C        0.45533        14.50056         0.89464
   C        1.09392        13.68299         1.92390
   C        2.44295        13.47531         2.04000
   C        3.09999        12.94696         3.17201
   N        3.71373        12.58612         4.07327
   C        3.38005        13.87867         1.06305
   N        4.18313        14.17241         0.29807
   H        4.04521        -5.37287        -4.36155
   H        0.01575        -6.74421        -4.66576
   H       -0.81950        -4.52133        -3.94335
   H        4.51950        -3.07638        -3.66570
   H       -0.37274        -2.19320        -3.24793
   H        1.90609         2.51241        -2.57947
   H        7.21522         4.96633        -3.68622
   H        3.30084         5.54021         1.16158
   H        6.07637         6.87749         1.10028
   H        3.73873         6.91003         3.12075
   H        6.68019         7.73904         3.30378
   H        4.59227         8.81522         8.79688
   H        0.68626        11.09238         6.11615
   H        1.58099        11.05465         3.17249
   H       -0.81282        12.42403         4.53325
   H       -2.65353        15.92054         0.96406
   H        1.52078        16.03562        -2.69861
   H       -2.15055        18.14090        -3.24468
   H       -2.98962        17.28552        -1.07051
   H        1.88947        14.69710        -0.68861
*
