# ORCA input file
# SCF done       -191.234723621980          0.000412395729
! CAM-B3LYP def2-SVP def2/J RIJCOSX Grid4 TightSCF
%maxcore 5000
%tddft
    Mode sTDDFT
    Ethresh 5.0
    maxcore 5000
end

%pal
  nprocs 6
  end
* xyz 0 1
   C      -15.36339        -4.59684         6.46659
   C      -16.44335        -4.53864         5.59762
   C      -16.46456        -5.28802         4.43094
   C      -15.40825        -6.12527         4.10375
   C      -14.32540        -6.19136         4.96403
   C      -14.29669        -5.42153         6.14777
   C      -13.03475        -5.66715         6.83765
   C      -12.68636        -5.15294         8.06091
   C      -13.52276        -4.32496         8.83806
   N      -14.14487        -3.64865         9.52687
   C      -11.47562        -5.38435         8.74559
   N      -10.52098        -5.51606         9.37127
   C      -12.23796        -6.51960         5.97000
   C      -13.10683        -6.98612         4.90582
   C      -12.95049        -8.12979         4.16199
   C      -11.90476        -9.05802         4.33335
   N      -11.10901        -9.87768         4.45046
   C      -13.86330        -8.56543         3.18199
   N      -14.54617        -8.95647         2.34517
   C      -10.88873        -6.73975         6.13705
   C       -9.93720        -7.12784         5.18367
   S       -8.35932        -7.66129         5.77975
   C       -7.79446        -7.85537         4.17153
   C       -8.78417        -7.48122         3.23007
   C       -9.98413        -7.07956         3.79163
   N       -8.24034        -7.62766         1.99156
   C       -6.96085        -8.11014         2.11506
   C       -6.66154        -8.25414         3.47001
   C       -6.10742        -8.36054         0.97946
   C       -5.01566        -9.18746         1.10592
   C       -4.15121        -9.40309         0.01347
   C       -2.99359       -10.15609        -0.11362
   C       -2.32750       -11.03239         0.89455
   C       -1.80437       -10.21801         2.09354
   N       -0.70768       -10.93393         2.71718
   C       -3.26426       -12.17065         1.33833
   N       -2.54177       -13.15069         2.13620
   C       -2.49028        -9.91787        -1.44617
   C       -1.35905       -10.32459        -2.05080
   C       -0.99720        -9.85518        -3.42032
   C       -2.05039        -9.04427        -4.10073
   C       -3.17450        -8.64227        -3.47966
   C       -3.42788        -9.02467        -2.14061
   C       -4.43087        -8.71888        -1.24546
   C       -5.57275        -7.89149        -1.35160
   C       -6.38317        -7.72448        -0.27772
   C       -0.46617       -11.00423        -4.23555
   C       -1.07214       -11.51552        -5.31018
   C       -0.54289       -12.57117        -6.12467
   S       -1.44623       -13.02472        -7.56415
   C       -0.22594       -14.16576        -7.99211
   C        0.80959       -14.18613        -7.02873
   C        0.62675       -13.28317        -5.97767
   N        1.71506       -15.10655        -7.42354
   C        1.32777       -15.63492        -8.64002
   C        0.09606       -15.06118        -8.99826
   C        2.09017       -16.66116        -9.23087
   C        2.03741       -17.14676       -10.51133
   C        2.51799       -18.46221       -10.91069
   C        3.35063       -19.29561       -10.20887
   C        3.93570       -19.00339        -8.96036
   N        4.44568       -18.82597        -7.94590
   C        3.77587       -20.56051       -10.66650
   N        4.16261       -21.59680       -10.97363
   C        1.93925       -18.74215       -12.21903
   C        1.25467       -17.59150       -12.67179
   C        0.59356       -17.59493       -13.88841
   C        0.61963       -18.75230       -14.65240
   C        1.29906       -19.88000       -14.21482
   C        1.96503       -19.88803       -12.99800
   C        1.43377       -16.53641       -11.68617
   C        1.32810       -15.19260       -11.93350
   C        0.80932       -14.65124       -13.12703
   N        0.37497       -14.15678       -14.06749
   C        1.82491       -14.19550       -11.06971
   N        2.27005       -13.35214       -10.43059
   H      -15.36527        -4.00441         7.36634
   H      -17.27742        -3.89617         5.83544
   H      -17.31241        -5.22092         3.76635
   H      -15.43388        -6.69919         3.19161
   H      -10.47519        -6.52103         7.11280
   H      -10.83510        -6.72172         3.24026
   H       -8.72866        -7.51221         1.11991
   H       -5.72927        -8.57667         3.88495
   H       -4.82180        -9.67355         2.04769
   H       -1.44780       -11.49208         0.43331
   H       -2.63969       -10.00601         2.77978
   H       -1.41945        -9.25794         1.73187
   H       -1.04614       -11.84616         3.01320
   H       -0.37869       -10.43327         3.53574
   H       -3.72844       -12.60628         0.43645
   H       -4.06767       -11.77030         1.96019
   H       -1.84700       -13.62173         1.56485
   H       -3.18037       -13.85493         2.49007
   H       -0.64748       -10.97446        -1.55985
   H       -0.13294        -9.18034        -3.27055
   H       -1.83387        -8.74526        -5.11486
   H       -3.89481        -8.02183        -3.99279
   H       -5.78069        -7.38973        -2.28522
   H       -7.23608        -7.06585        -0.35274
   H        0.47096       -11.41534        -3.88796
   H       -2.01957       -11.10922        -5.63674
   H        1.31116       -13.14955        -5.16133
   H        2.59204       -15.31222        -6.97359
   H       -0.49222       -15.30606        -9.85963
   H        2.75270       -17.16882        -8.54165
   H        0.05826       -16.72598       -14.23560
   H        0.10304       -18.77302       -15.59973
   H        1.30938       -20.76857       -14.82730
   H        2.48427       -20.77474       -12.67388
*
