# ORCA input file
# SCF done       -235.599105103568          0.000964414186
! CAM-B3LYP def2-SVP def2/J RIJCOSX Grid4 TightSCF
%maxcore 5000
%tddft
    Mode sTDDFT
    Ethresh 5.0
    maxcore 5000
end

%pal
  nprocs 6
  end
* xyz 0 1
   C       -5.39423         1.83721         0.66278
   C       -6.09392         2.94745         1.05424
   C       -7.10061         2.93338         2.03969
   N       -7.88521         2.99893         2.87565
   C       -5.92051         4.22742         0.49130
   N       -5.88713         5.27453         0.02102
   C       -5.75570         0.45728         0.95425
   C       -4.93334        -0.41000         0.17755
   C       -5.06931        -1.76689         0.22717
   C       -6.07881        -2.32913         1.03931
   C       -6.94087        -1.46706         1.77562
   C       -6.75090        -0.06786         1.73643
   C       -7.98368        -2.03847         2.53388
   C       -8.14989        -3.39516         2.58729
   C       -7.28273        -4.24438         1.88297
   C       -6.27330        -3.72205         1.12085
   C       -4.02066         0.39445        -0.65049
   O       -3.23768         0.01201        -1.48801
   C       -4.24734         1.80907        -0.22667
   C       -3.32006         2.72987        -0.55948
   C       -3.08790         4.08555        -0.09573
   C       -3.12689         4.45461         1.26388
   C       -3.40915         3.46124         2.31940
   O       -3.01489         2.30691         2.27246
   C       -4.21059         3.91913         3.46331
   C       -5.05292         4.99789         3.53650
   S       -5.83988         5.10177         5.04613
   C       -5.03186         3.68367         5.61098
   C       -4.21508         3.15174         4.67059
   C       -3.31453         1.96308         4.80478
   O       -2.14764         2.09513         5.09012
   C       -3.95107         0.64183         4.58974
   C       -3.15205        -0.40962         4.14653
   C       -3.69083        -1.67087         3.98194
   C       -5.02025        -1.90137         4.29641
   C       -5.81799        -0.85921         4.74090
   C       -5.29699         0.41510         4.86448
   C       -2.80266         5.76406         1.61281
   C       -2.48553         6.70348         0.65772
   C       -2.48166         6.36609        -0.70150
   C       -2.76354         5.04311        -1.04744
   C       -2.17297         7.33359        -1.72376
   N       -1.45681         8.48205        -1.45717
   C       -1.33023         9.18975        -2.61077
   C       -0.79097        10.34836        -3.16765
   C       -1.16575        10.33854        -4.51297
   N       -1.90676         9.20230        -4.77299
   C       -2.01514         8.48273        -3.62640
   C       -2.53130         7.31140        -3.06984
   C       -0.89376        11.27628        -5.54859
   C       -0.11179        12.36550        -5.39545
   C        0.19310        13.33495        -6.41654
   C        0.90802        14.51716        -6.11414
   C        1.39491        14.81649        -4.74826
   O        0.77330        14.56831        -3.73254
   C        2.71586        15.48361        -4.67212
   C        3.00401        16.34001        -3.64643
   S        4.56045        17.03761        -3.77604
   C        4.85467        16.17231        -5.22782
   C        3.81094        15.37365        -5.59090
   C        3.89856        14.52092        -6.80385
   O        4.39142        14.94616        -7.82780
   C        3.39682        13.13160        -6.68597
   C        3.29308        12.47522        -5.46097
   C        2.81247        11.18034        -5.41178
   C        2.43343        10.53178        -6.57643
   C        2.55791        11.17026        -7.79968
   C        3.04703        12.46044        -7.85667
   C        1.17621        15.44257        -7.12640
   C        0.78484        15.21583        -8.42343
   C        0.10391        14.03203        -8.75605
   C       -0.15567        13.10830        -7.75127
   C       -0.25686        13.83230       -10.13819
   C       -1.29053        13.14853       -10.68823
   C       -1.55088        13.12273       -12.12710
   C       -0.61278        13.24582       -13.11336
   C       -0.91258        13.19042       -14.49125
   N       -1.10338        13.15970       -15.62244
   C        0.77493        13.37642       -12.88382
   N        1.91432        13.44287       -12.76355
   C       -2.96451        12.84104       -12.31853
   C       -3.52667        12.50378       -11.05491
   C       -2.48573        12.56345       -10.01261
   O       -2.60997        12.19879        -8.86430
   C       -4.84654        12.18197       -10.91732
   C       -5.68056        12.19584       -12.05721
   C       -5.12620        12.54089       -13.32430
   C       -3.75431        12.86061       -13.43786
   C       -5.97091        12.55679       -14.45310
   C       -7.29870        12.24751       -14.33827
   C       -7.84335        11.90789       -13.09060
   C       -7.05153        11.88151       -11.97491
   H       -4.42692        -2.40347        -0.36300
   H       -7.40323         0.55771         2.32486
   H       -8.65230        -1.38061         3.06961
   H       -8.95039        -3.82303         3.17236
   H       -7.42338        -5.31341         1.94209
   H       -5.61029        -4.37010         0.56651
   H       -2.59387         2.37950        -1.28978
   H       -5.27567         5.71482         2.77035
   H       -5.20417         3.34101         6.61190
   H       -2.11460        -0.20952         3.92776
   H       -3.07206        -2.48027         3.62398
   H       -5.43770        -2.89258         4.19398
   H       -6.85193        -1.04273         4.99219
   H       -5.92796         1.22520         5.19927
   H       -2.77257         6.03580         2.65747
   H       -2.26147         7.71257         0.96925
   H       -2.73941         4.75489        -2.08697
   H       -1.03532         8.70349        -0.57239
   H       -0.22252        11.11378        -2.68044
   H       -2.30792         8.98049        -5.66792
   H       -3.12355         6.55991        -3.55117
   H       -1.37557        11.07070        -6.49495
   H        0.30189        12.55575        -4.41841
   H        2.35293        16.60517        -2.83671
   H        5.79371        16.27120        -5.73564
   H        3.60209        12.96844        -4.55103
   H        2.72981        10.67274        -4.46257
   H        2.04702         9.52467        -6.52710
   H        2.27727        10.66141        -8.70977
   H        3.15641        12.97528        -8.79947
   H        1.68284        16.36498        -6.88247
   H        0.99544        15.94881        -9.18735
   H       -0.62519        12.17871        -8.01412
   H        0.36916        14.39054       -10.82726
   H       -5.25108        11.92604        -9.94921
   H       -3.36262        13.12557       -14.40735
   H       -5.54676        12.81780       -15.41152
   H       -7.93738        12.26289       -15.20857
   H       -8.89354        11.66790       -13.01814
   H       -7.46545        11.62130       -11.01168
*
