# ORCA input file
# SCF done       -209.108189838765          0.000757654509
! CAM-B3LYP def2-SVP def2/J RIJCOSX Grid4 TightSCF
%maxcore 5000
%tddft
    Mode sTDDFT
    Ethresh 5.0
    maxcore 5000
end

%pal
  nprocs 6
  end
* xyz 0 1
   C       -5.38113         3.17711        -1.72454
   C       -4.55129         2.95803        -0.65427
   C       -4.98770         2.88583         0.68161
   N       -5.27577         2.86105         1.79360
   C       -3.17513         2.68316        -0.78673
   N       -2.06760         2.38592        -0.85041
   C       -6.83829         3.09479        -1.69594
   C       -7.30155         2.89263        -3.02898
   C       -8.62594         2.72542        -3.30969
   C       -9.56516         2.76430        -2.25379
   C       -9.10984         2.97946        -0.92135
   C       -7.72938         3.14128        -0.65871
   C      -10.05790         3.02002         0.12089
   C      -11.39128         2.85397        -0.13757
   C      -11.83848         2.64163        -1.44989
   C      -10.94452         2.59738        -2.48511
   C       -6.15130         2.91623        -3.95503
   O       -6.15896         2.74231        -5.15301
   C       -4.98050         3.26285        -3.10848
   C       -3.83429         3.71278        -3.69555
   C       -2.77694         4.45479        -3.14155
   O       -2.81275         5.01387        -1.89569
   C       -1.67680         5.68734        -1.68143
   C       -0.84014         5.57757        -2.79412
   C       -1.56785         4.80484        -3.74735
   O       -1.17091         4.46440        -4.95850
   C        0.55242         5.92709        -3.08851
   O        0.98090         5.79330        -4.21946
   O        1.36739         6.32618        -2.11863
   C       -1.51590         6.37959        -0.42337
   C       -0.76470         7.52890        -0.33829
   C       -0.54719         8.13303         0.91710
   C        0.23749         9.21064         1.28978
   C        1.09043        10.10225         0.44905
   C        1.96938         9.33639        -0.55925
   N        2.37993         8.04662        -0.02165
   C        0.21624        11.13750        -0.28430
   N        1.05101        12.04103        -1.05515
   C        0.12108         9.32734         2.72429
   C        0.70281        10.17139         3.59644
   C        0.49043        10.05507         5.06289
   C       -0.51443         9.01690         5.46660
   C       -1.09702         8.18785         4.58147
   C       -0.79265         8.27987         3.20167
   C       -1.18491         7.55386         2.09663
   C       -2.02007         6.42053         1.95526
   C       -2.17269         5.84820         0.73610
   C        0.14632        11.37819         5.69232
   C       -0.63448        12.29202         5.10500
   C       -0.93067        13.54267         5.73554
   O       -0.29168        13.89028         6.86532
   C       -0.72451        15.08829         7.27125
   C       -1.69715        15.55627         6.36688
   C       -1.81744        14.55827         5.37327
   O       -2.60909        14.54368         4.29536
   C       -2.44903        16.79970         6.47368
   O       -2.43036        17.55928         7.40639
   O       -3.22540        17.02536         5.38467
   C       -0.18309        15.76677         8.38336
   C        0.68408        15.29357         9.32536
   C        1.25209        16.11115        10.38460
   C        1.36203        17.47645        10.37521
   C        1.93801        18.22296        11.42442
   N        2.38804        18.88017        12.25117
   C        1.00577        18.31046         9.29253
   N        0.80578        19.04699         8.43529
   C        1.80537        15.21740        11.39267
   C        1.71487        13.88275        10.90501
   C        1.07035        13.87640         9.57792
   O        0.88492        12.90302         8.88066
   C        2.18318        12.82082        11.62397
   C        2.77073        13.04919        12.88833
   C        2.85581        14.38135        13.38695
   C        2.36341        15.46169        12.61944
   C        3.44251        14.59705        14.65052
   C        3.92494        13.54925        15.38652
   C        3.84105        12.23811        14.89454
   C        3.27620        11.99347        13.67228
   H       -8.95533         2.56365        -4.32533
   H       -7.41057         3.30769         0.35878
   H       -9.70860         3.18089         1.13040
   H      -12.10921         2.88463         0.66849
   H      -12.89427         2.51317        -1.63658
   H      -11.28256         2.43383        -3.49804
   H       -3.74916         3.55373        -4.76481
   H       -0.26689         4.84507        -5.08688
   H        0.96382         6.42931        -1.23964
   H       -0.37688         7.99765        -1.22823
   H        1.75779        10.65417         1.12078
   H        2.81267         9.98852        -0.83036
   H        1.41056         9.15067        -1.47777
   H        2.92447         8.17867         0.82482
   H        2.96942         7.57179        -0.69703
   H       -0.41483        11.65098         0.46270
   H       -0.44806        10.61858        -0.97971
   H        1.62287        12.60847        -0.43814
   H        0.47990        12.66691        -1.61119
   H        1.37207        10.95935         3.27742
   H        1.46005         9.74638         5.48873
   H       -0.73903         8.96540         6.52038
   H       -1.80378         7.44087         4.91213
   H       -2.51697         6.00992         2.82106
   H       -2.77840         4.96510         0.61310
   H        0.53047        11.57322         6.68358
   H       -1.08367        12.13390         4.13548
   H       -3.11192        15.37355         4.26979
   H       -3.70035        17.86319         5.49866
   H       -0.53884        16.78589         8.47002
   H        2.10808        11.81714        11.23221
   H        2.43552        16.45832        13.02522
   H        3.50631        15.60844        15.02414
   H        4.37448        13.72502        16.35227
   H        4.22633        11.42309        15.48877
   H        3.20904        10.98588        13.28855
*
