# ORCA input file
# SCF done       -209.479245585908          0.000521923873
! CAM-B3LYP def2-SVP def2/J RIJCOSX Grid4 TightSCF
%maxcore 5000
%tddft
    Mode sTDDFT
    Ethresh 5.0
    maxcore 5000
end

%pal
  nprocs 6
  end
* xyz 0 1
   C       -1.49183        -0.19202         2.96400
   C       -0.88900         0.94568         3.47554
   C       -0.21512         1.79477         2.59540
   C        0.41150         2.96124         3.10042
   N        0.91543         3.90116         3.51644
   C       -0.14374         1.51471         1.21715
   C        0.54581         2.39804         0.35201
   N        1.09998         3.10169        -0.36138
   C       -0.74973         0.36620         0.70645
   C       -1.40909        -0.46424         1.58729
   C       -2.11113        -1.73196         1.28442
   O       -2.20531        -2.23025         0.18423
   C       -2.61935        -2.22576         2.58198
   C       -2.26042        -1.25969         3.60682
   C       -2.58597        -1.28632         4.93804
   C       -2.19466        -0.29890         5.86939
   N       -1.90929         0.46206         6.67932
   C       -3.36013        -2.26805         5.59435
   N       -3.98409        -3.00918         6.21128
   C       -3.26544        -3.40823         2.84600
   C       -3.70146        -4.44596         2.00734
   C       -3.71034        -4.61784         0.62406
   C       -4.24524        -5.83847         0.25201
   C       -4.65963        -6.62997         1.35527
   S       -4.39777        -5.85116         2.84032
   C       -5.15404        -7.86019         0.87616
   C       -5.05432        -7.85635        -0.53320
   C       -4.49725        -6.58519        -0.96996
   C       -4.27474        -6.18818        -2.25463
   C       -4.56663        -7.02551        -3.35392
   N       -4.79950        -7.70036        -4.25093
   C       -3.75509        -4.91911        -2.59356
   N       -3.34624        -3.89411        -2.90210
   C       -5.49318        -9.04052        -1.10412
   C       -5.92920        -9.94913        -0.14460
   S       -5.80585        -9.32455         1.48773
   C       -6.41132       -11.26180        -0.37727
   C       -6.83799       -12.07595         0.69934
   C       -7.30051       -13.41446         0.50792
   N       -7.69504       -14.13956         1.56843
   C       -7.64577       -13.60712         2.75813
   C       -7.18464       -12.28830         2.94775
   N       -6.79644       -11.55830         1.93902
   C       -7.34987       -14.02195        -0.76990
   C       -6.94266       -13.20970        -1.85143
   C       -6.48475       -11.85136        -1.65878
   N       -6.15158       -11.28159        -2.81931
   S       -6.38542       -12.32082        -4.01360
   N       -6.91897       -13.55230        -3.14171
   C       -7.76762       -15.36851        -0.91460
   C       -7.80365       -16.10635        -2.09353
   C       -8.24317       -17.40274        -1.87783
   C       -8.55410       -17.65854        -0.52275
   S       -8.28705       -16.29446         0.48034
   C       -8.97761       -19.00156        -0.41343
   C       -8.93329       -19.59645        -1.69668
   C       -8.45841       -18.61260        -2.65296
   C       -8.22142       -18.81264        -3.98130
   C       -8.44021       -20.07325        -4.57632
   N       -8.62613       -21.10869        -5.03278
   C       -7.74138       -17.78893        -4.82529
   N       -7.35599       -16.95743        -5.51358
   C       -9.30027       -20.93070        -1.68906
   C       -9.62700       -21.38081        -0.41361
   S       -9.50170       -20.09229         0.78240
   C      -10.06317       -22.65868        -0.01926
   C       -9.96132       -23.83975        -0.69948
   C      -10.86620       -24.95876        -0.32597
   O      -11.56442       -25.03332         0.65680
   C      -10.76501       -25.92675        -1.44318
   C      -11.49282       -27.07830        -1.65455
   C      -11.24187       -27.81074        -2.81654
   C      -10.27590       -27.36647        -3.73983
   C       -9.53696       -26.20385        -3.51096
   C       -9.78110       -25.48931        -2.35144
   C       -9.16336       -24.26929        -1.82627
   C       -7.92037       -23.81670        -2.18406
   C       -7.23343       -22.78819        -1.50896
   N       -6.62728       -21.97530        -0.97107
   C       -7.13537       -24.39387        -3.20572
   N       -6.45710       -24.83178        -4.02020
   C      -10.05221       -28.11239        -4.92402
   N       -9.86920       -28.70928        -5.88344
   C      -11.96753       -28.99946        -3.07169
   N      -12.56574       -29.95722        -3.26083
   H       -0.91812         1.19696         4.52343
   H       -0.70554         0.13123        -0.34621
   H       -3.47363        -3.60354         3.89123
   H       -3.32808        -3.87271        -0.05087
   H       -5.50667        -9.27300        -2.15297
   H       -7.97293       -14.22180         3.58409
   H       -7.13635       -11.83556         3.92745
   H       -7.51311       -15.68458        -3.03818
   H       -9.37810       -21.54862        -2.56489
   H      -10.61632       -22.71640         0.91315
   H      -12.23666       -27.40331        -0.94311
   H       -8.81093       -25.88534        -4.24230
*
