# ORCA input file
# SCF done       -207.985140698950          0.000564342800
! CAM-B3LYP def2-SVP def2/J RIJCOSX Grid4 TightSCF
%maxcore 5000
%tddft
    Mode sTDDFT
    Ethresh 5.0
    maxcore 5000
end

%pal
  nprocs 6
  end
* xyz 0 1
   C       -2.25649         3.23109        -0.92261
   C       -3.46677         2.99516        -1.56164
   C       -3.58050         3.05377        -2.94378
   C       -2.47355         3.33506        -3.73229
   C       -1.26508         3.56342        -3.10253
   C       -1.14872         3.52622        -1.70017
   C        0.22825         3.85176        -1.32994
   C        0.61524         4.33590        -0.10869
   C       -0.24893         4.45475         1.00138
   N       -0.90522         4.58016         1.93382
   C        1.89311         4.86372         0.16192
   N        2.91236         5.32436         0.42091
   C        1.01005         3.83702        -2.54933
   C        0.05358         3.84689        -3.69816
   O        0.33436         4.00821        -4.86222
   C        2.34138         3.73892        -2.81293
   C        3.39115         3.35248        -1.95028
   C        3.32221         2.64933        -0.75452
   C        4.57523         2.43699        -0.19935
   C        5.62322         2.97383        -0.98045
   S        5.05255         3.71748        -2.40057
   C        6.84991         2.72744        -0.32302
   C        6.57594         2.03787         0.88001
   C        5.14028         1.84494         0.99979
   C        4.45658         1.26782         2.02945
   C        5.10729         0.73219         3.16075
   N        5.63473         0.28924         4.07723
   C        3.04858         1.17769         2.01417
   N        1.90440         1.10846         1.98209
   C        7.72004         1.74752         1.60563
   C        8.86908         2.20769         0.96893
   S        8.52066         3.01658        -0.54992
   C       10.20113         2.07532         1.43265
   C       11.28831         2.60479         0.69693
   C       12.66120         2.50735         1.12751
   N       13.62758         2.98813         0.33271
   C       13.31747         3.56337        -0.80262
   C       11.95020         3.70748        -1.20497
   N       10.99397         3.22056        -0.45377
   C       11.61464         4.35748        -2.41831
   N       11.36959         4.88259        -3.40600
   C       14.35342         4.02415        -1.65575
   N       15.15528         4.39257        -2.38484
   C       13.00209         1.88124         2.35372
   C       11.91770         1.32615         3.07023
   C       10.54704         1.41755         2.63435
   N        9.72236         0.81763         3.49409
   S       10.56362         0.20843         4.71198
   N       12.02366         0.66579         4.22397
   C       14.32363         1.78689         2.86345
   C       15.48002         2.39339         2.38317
   C       16.59244         2.06737         3.14329
   C       16.29186         1.19399         4.21282
   S       14.63118         0.80889         4.29326
   C       17.48946         0.91426         4.90939
   C       18.54759         1.60809         4.28273
   C       18.01347         2.37362         3.17025
   C       18.69714         3.24112         2.37056
   C       20.08062         3.45852         2.54302
   N       21.20593         3.61540         2.69783
   C       18.06204         3.98369         1.35183
   N       17.53990         4.59266         0.53335
   C       19.76940         1.41355         4.91036
   C       19.66446         0.58190         6.01679
   S       18.01792         0.01069         6.25228
   C       20.68643         0.13818         6.88657
   C       21.91779         0.67830         7.09186
   C       22.51674         1.95313         6.75077
   C       21.87474         3.15991         6.64632
   C       22.54073         4.39032         6.46238
   N       23.03376         5.41723         6.32690
   C       20.48695         3.33063         6.81213
   N       19.36447         3.52169         6.96148
   C       23.96284         1.77922         6.81699
   C       24.24570         0.52587         7.42097
   C       22.98204        -0.17383         7.70324
   O       22.81771        -1.23395         8.26116
   C       25.53035         0.09622         7.65429
   C       26.58003         0.93286         7.26314
   C       26.28576         2.17271         6.64385
   C       24.98730         2.61328         6.41520
   S       27.73582         3.02957         6.23193
   C       28.70421         1.75341         6.88310
   C       27.98302         0.72728         7.38543
   H       -2.18959         3.16908         0.15157
   H       -4.33666         2.76154        -0.96656
   H       -4.53816         2.87421        -3.40846
   H       -2.54004         3.37785        -4.80844
   H        2.61521         3.92479        -3.84733
   H        2.40036         2.27953        -0.34405
   H        7.75780         1.23178         2.54757
   H       15.47838         3.03305         1.52051
   H       20.70513         1.81526         4.56675
   H       20.49927        -0.79063         7.41696
   H       25.71890        -0.85687         8.12342
   H       24.80820         3.55903         5.93086
   H       29.77186         1.85138         6.84819
   H       28.41416        -0.15147         7.82964
*
