# ORCA input file
# SCF done       -199.724759860568          0.000809283431
! CAM-B3LYP def2-SVP def2/J RIJCOSX Grid4 TightSCF
%maxcore 5000
%tddft
    Mode sTDDFT
    Ethresh 5.0
    maxcore 5000
end

%pal
  nprocs 6
  end
* xyz 0 1
   C       10.41247        -0.19356         0.86067
   C        9.39368        -0.77488         0.13986
   C        8.22225         0.06882         0.05808
   N        7.15757        -0.29365        -0.65799
   C        7.20943        -1.46267        -1.25717
   C        6.05299        -1.82596        -2.11236
   O        5.16161        -1.04730        -2.37234
   C        6.08527        -3.19892        -2.65072
   C        7.11836        -4.03089        -2.49044
   C        8.34574        -3.68300        -1.74999
   O        9.28089        -4.44605        -1.65816
   C        8.34241        -2.33210        -1.11974
   N        9.40982        -1.98589        -0.44668
   C        8.38271         1.27978         0.74571
   S        9.96835         1.35037         1.43972
   C        7.42638         2.31030         0.86106
   C        6.08567         2.22150         0.50746
   C        5.41761         3.41897         0.72612
   C        6.25577         4.44055         1.22708
   S        7.85739         3.90328         1.47209
   C        5.50884         5.63188         1.34452
   C        4.18603         5.36526         0.92330
   C        4.07857         3.96118         0.55923
   C        2.94974         3.28878         0.19661
   C        2.92469         1.89207        -0.01401
   N        2.86736         0.75458        -0.14047
   C        1.70363         3.93896         0.06423
   N        0.69014         4.46228        -0.05259
   C        3.37311         6.48627         0.96889
   C        4.06034         7.61287         1.41233
   S        5.73624         7.26546         1.79978
   C        3.54236         8.92843         1.51604
   C        4.34346        10.01275         1.94350
   C        3.88346        11.37243         1.97730
   N        4.72934        12.33384         2.40155
   C        5.93070        12.02040         2.76484
   C        6.38863        10.67825         2.72088
   N        5.60590         9.72900         2.32175
   F        7.62399        10.35452         3.08743
   F        6.72681        12.99552         3.18445
   C        2.57087        11.71812         1.56940
   C        1.75086        10.62653         1.19942
   C        2.21210         9.26195         1.16949
   N        1.24698         8.43079         0.77511
   S       -0.09047         9.25953         0.47672
   N        0.47523        10.72312         0.82438
   C        2.07254        13.04512         1.48464
   C        2.73397        14.24142         1.74660
   C        1.93785        15.34684         1.48840
   C        0.64656        14.99816         1.03164
   S        0.42385        13.30761         0.92727
   C       -0.06681        16.18558         0.76749
   C        0.76580        17.29216         1.04555
   C        2.03835        16.79763         1.54832
   C        3.07592        17.53640         2.03172
   C        4.27183        16.94587         2.49634
   N        5.25422        16.48451         2.86464
   C        3.01458        18.94183         2.16453
   N        2.96958        20.07477         2.33033
   C        0.17195        18.51159         0.74693
   C       -1.12119        18.34874         0.26632
   S       -1.60066        16.65746         0.18401
   C       -1.99045        19.38207        -0.14167
   C       -1.64705        20.72401        -0.35589
   C       -2.77834        21.52789        -0.76178
   N       -2.63644        22.84597        -0.99311
   C       -1.43109        23.34121        -0.87513
   C       -1.27324        24.80539        -1.10697
   O       -2.20027        25.52471        -1.40415
   C        0.09870        25.32071        -0.94034
   C        1.15522        24.54877        -0.67014
   C        1.07602        23.08390        -0.51480
   O        2.06182        22.38839        -0.40265
   C       -0.29870        22.52646        -0.53972
   N       -0.42303        21.24589        -0.26991
   C       -3.93794        20.79302        -0.86381
   S       -3.67526        19.15154        -0.47252
   H       11.38141        -0.59816         1.07077
   H        5.20886        -3.48944        -3.21431
   H        7.11217        -5.02498        -2.91723
   H        5.66329         1.32072         0.09958
   H        2.33581         6.52559         0.69211
   H        3.74827        14.26689         2.09743
   H        0.62480        19.48212         0.84238
   H        0.20058        26.39014        -1.06810
   H        2.14851        24.96572        -0.57214
   H       -4.91145        21.13870        -1.14558
*
