# ORCA input file
# SCF done       -221.409814051217          0.000856578558
! CAM-B3LYP def2-SVP def2/J RIJCOSX Grid4 TightSCF
%maxcore 5000
%tddft
    Mode sTDDFT
    Ethresh 5.0
    maxcore 5000
end

%pal
  nprocs 6
  end
* xyz 0 1
   C       -1.79085         2.81636        -1.02832
   C       -1.61726         1.74194        -1.86310
   C       -0.37474         1.35765        -2.40952
   N        0.60258         0.99069        -2.88729
   C       -2.62739         0.84891        -2.27628
   N       -3.38500         0.06988        -2.65004
   C       -0.72936         3.70088        -0.56044
   C       -1.28017         4.62181         0.36651
   C       -0.52907         5.58911         0.98867
   C        0.83312         5.65498         0.68033
   C        1.37520         4.73429        -0.24821
   C        0.61501         3.75416        -0.87612
   S        3.07366         5.00415        -0.48121
   C        3.04451         6.31723         0.64411
   C        1.82361         6.55009         1.17358
   C       -2.71916         4.35531         0.51547
   O       -3.48730         4.93272         1.26310
   C       -3.02994         3.25780        -0.41313
   C       -4.28207         2.78050        -0.69248
   C       -5.53045         3.15031        -0.16117
   C       -6.72358         2.58801        -0.61803
   C       -7.86304         3.05654         0.02233
   C       -9.22507         2.67517        -0.35771
   C       -9.52252         1.33253        -0.58632
   C      -10.81576         0.96769        -0.92483
   C      -11.81046         1.94013        -1.04973
   C      -11.50659         3.27618        -0.84594
   C      -10.20418         3.64245        -0.50532
   O      -12.39981         4.29713        -0.93994
   C      -13.72778         3.99784        -1.29964
   O      -11.22946        -0.30908        -1.15077
   C      -10.28391        -1.34796        -1.05734
   C       -7.54098         3.99438         1.00953
   S       -5.84556         4.31696         1.09235
   C       -8.41964         4.62085         1.94958
   C       -8.16511         5.92060         2.43563
   C       -8.99247         6.56388         3.42008
   N       -8.64202         7.79521         3.85542
   C       -7.60023         8.37579         3.36319
   C       -6.82095         7.76412         2.34318
   N       -7.10931         6.58334         1.91338
   F       -5.79209         8.40102         1.79413
   F       -7.28490         9.58016         3.83631
   C      -10.14426         5.93556         3.94788
   C      -10.40087         4.63783         3.45259
   C       -9.54740         3.97871         2.49598
   N       -9.95381         2.72928         2.25472
   S      -11.28175         2.43540         3.09153
   N      -11.40875         3.85129         3.83453
   C      -10.99689         6.50606         4.93897
   C      -10.87831         7.71966         5.59529
   C      -11.88637         7.96866         6.52514
   C      -11.90429         9.16703         7.36623
   C      -12.13929         9.08578         8.73317
   C      -12.23882        10.24730         9.49420
   C      -12.10401        11.49514         8.89103
   C      -11.84397        11.57544         7.52600
   C      -11.73751        10.40773         6.76839
   O      -11.68556        12.72919         6.84058
   C      -11.93497        13.95405         7.49080
   O      -12.49470        10.05980        10.81736
   C      -12.52751        11.17816        11.67170
   C      -12.82713         6.93490         6.57915
   S      -12.39203         5.64042         5.49748
   C      -13.98468         6.76664         7.37325
   C      -14.75806         7.67625         8.02957
   C      -14.85769         9.11770         7.97348
   C      -14.67864         9.89962         6.86074
   C      -14.88008        11.29256         6.85109
   N      -15.03037        12.43081         6.81823
   C      -14.34142         9.36321         5.60267
   N      -14.11066         8.94258         4.56020
   C      -15.42623         9.55774         9.24238
   C      -15.87597         8.42136         9.96008
   C      -15.58532         7.20593         9.17621
   O      -15.89277         6.06377         9.42994
   C      -16.44718         8.51618        11.20623
   C      -16.56498         9.78761        11.77513
   C      -16.11166        10.91402        11.05002
   C      -15.55008        10.82133         9.78230
   S      -16.33324        12.37709        11.95987
   C      -17.02097        11.48547        13.27497
   C      -17.08511        10.15636        13.04923
   H       -0.98051         6.27370         1.68985
   H        1.07598         3.08017        -1.57857
   H        3.95846         6.84313         0.84113
   H        1.61462         7.32574         1.88787
   H       -4.35438         2.00380        -1.44460
   H       -6.74649         1.87204        -1.42124
   H       -8.74447         0.59855        -0.46028
   H      -12.80076         1.60544        -1.30916
   H       -9.98266         4.68749        -0.35861
   H      -14.24719         4.95424        -1.32732
   H      -14.20689         3.34711        -0.56125
   H      -13.77903         3.52776        -2.28652
   H      -10.82961        -2.26309        -1.28149
   H       -9.86044        -1.41620        -0.05036
   H       -9.47583        -1.22215        -1.78450
   H      -10.06448         8.39494         5.41314
   H      -12.24253         8.13358         9.22781
   H      -12.19934        12.39374         9.47628
   H      -11.55967        10.49464         5.70899
   H      -11.22956        14.12778         8.30999
   H      -12.96178        13.99909         7.86473
   H      -11.79690        14.72010         6.73018
   H      -11.56871        11.70603        11.67640
   H      -12.72399        10.78021        12.66593
   H      -13.32657        11.87506        11.40090
   H      -14.27686         5.73313         7.54155
   H      -16.78266         7.63513        11.73093
   H      -15.21318        11.70446         9.26467
   H      -17.33861        12.02456        14.14607
   H      -17.48229         9.44585        13.75146
*
