# ORCA input file
# SCF done       -206.510032354476          0.000636097331
! CAM-B3LYP def2-SVP def2/J RIJCOSX Grid4 TightSCF
%maxcore 5000
%tddft
    Mode sTDDFT
    Ethresh 5.0
    maxcore 5000
end

%pal
  nprocs 6
  end
* xyz 0 1
   C       -2.12638        -1.35315         0.52814
   C       -0.81617        -1.08545         0.82993
   C        0.22695        -2.02991         0.72737
   N        1.12005        -2.74851         0.66603
   C       -0.31879         0.14350         1.31204
   N        0.16210         1.10353         1.71976
   C       -2.64527        -2.64568         0.09388
   C       -4.05710        -2.55770        -0.00878
   C       -4.84183        -3.61800        -0.39365
   C       -4.20368        -4.82419        -0.69730
   C       -2.79367        -4.90300        -0.59693
   C       -2.00046        -3.83068        -0.20399
   S       -2.22109        -6.48376        -1.02450
   C       -3.83885        -7.01516        -1.32646
   C       -4.77093        -6.05930        -1.11946
   C       -4.48079        -1.19680         0.34583
   O       -5.62784        -0.78258         0.38538
   C       -3.25302        -0.44188         0.62531
   C       -3.18160         0.90810         0.85223
   C       -4.20311         1.86581         0.95329
   C       -3.92170         3.23007         1.10515
   C       -5.06423         4.00051         1.18869
   C       -6.24482         3.21778         1.12150
   S       -5.93861         1.55387         0.92378
   C       -7.35583         4.08627         1.20888
   C       -6.88629         5.41318         1.32594
   C       -5.43317         5.40155         1.31738
   C       -4.60057         6.47887         1.39799
   C       -3.19579         6.34920         1.36597
   N       -2.05377         6.25304         1.33551
   C       -5.08700         7.79869         1.50976
   N       -5.47051         8.87568         1.59910
   C       -7.91068         6.34500         1.40263
   C       -9.16514         5.74727         1.35025
   S       -9.06165         3.99638         1.21194
   C      -10.43886         6.37617         1.37431
   C      -10.63562         7.78342         1.39911
   C      -11.95321         8.34624         1.36383
   N      -12.11296         9.68185         1.36410
   C      -11.06360        10.45373         1.40265
   C       -9.76823         9.90062         1.44799
   N       -9.57419         8.61157         1.44405
   C      -13.13390         7.56487         1.32027
   C      -12.94143         6.16770         1.33215
   C      -11.61669         5.59894         1.35049
   N      -11.65485         4.26463         1.33998
   S      -13.18410         3.77706         1.31417
   N      -13.87962         5.21823         1.31160
   C      -14.40758         8.18023         1.24038
   C      -15.64070         7.53854         1.20049
   C      -16.68816         8.43925         1.08192
   C      -16.25217         9.78151         1.02577
   S      -14.54747         9.92492         1.13973
   C      -17.38927        10.60693         0.86968
   C      -18.54216         9.79113         0.83684
   C      -18.13629         8.40326         0.96472
   C      -18.94853         7.30746         0.93779
   C      -18.45000         5.99318         1.05466
   N      -18.05432         4.92147         1.15362
   C      -20.34588         7.43495         0.79136
   N      -21.48060         7.55604         0.67711
   C      -19.71073        10.50959         0.63416
   C      -19.47399        11.87098         0.49721
   S      -17.76396        12.25541         0.67327
   C      -20.39813        12.91477         0.27993
   C      -21.67899        12.84068        -0.17754
   C      -22.45093        11.79841        -0.82175
   C      -21.97773        10.81756        -1.65547
   C      -22.80497         9.91895        -2.36140
   N      -23.42984         9.16979        -2.96550
   C      -20.62004        10.65427        -1.99020
   N      -19.52966        10.49664        -2.31447
   C      -23.85908        12.14468        -0.66164
   C      -23.94904        13.47278        -0.16938
   C      -22.59288        13.99354         0.07184
   O      -22.26903        15.09960         0.44003
   C      -25.15443        14.09847         0.04082
   C      -26.32095        13.37740        -0.23209
   C      -26.21894        12.04501        -0.70122
   C      -25.00058        11.41384        -0.92463
   S      -27.78603        11.34537        -0.95246
   C      -28.54935        12.81241        -0.44595
   C      -27.67827        13.78520        -0.09971
   H       -5.91410        -3.51782        -0.45978
   H       -0.93072        -3.94219        -0.14675
   H       -3.99449        -8.02727        -1.64597
   H       -5.82670        -6.20759        -1.25694
   H       -2.19145         1.33662         0.95272
   H       -2.91407         3.60494         1.14512
   H       -7.79489         7.40914         1.48895
   H      -11.23696        11.52017         1.40092
   H       -8.88348        10.52020         1.48891
   H      -15.72874         6.46880         1.25137
   H      -20.69722        10.08329         0.62362
   H      -20.07590        13.91051         0.56964
   H      -25.19555        15.11316         0.40523
   H      -24.96896        10.39480        -1.27345
   H      -29.62114        12.85594        -0.43792
   H      -27.97025        14.76247         0.23973
*
