# ORCA input file
# SCF done       -173.983490147658          0.000375463227
! CAM-B3LYP def2-SVP def2/J RIJCOSX Grid4 TightSCF
%maxcore 5000
%tddft
    Mode sTDDFT
    Ethresh 5.0
    maxcore 5000
end

%pal
  nprocs 6
  end
* xyz 0 1
   C        1.78778        -0.80026        -4.06082
   C        3.09044        -0.44747        -3.80329
   N        3.67579         0.63480        -4.52814
   O        3.06934         1.02515        -5.50468
   O        4.72190         1.10812        -4.13707
   C        3.71511        -1.24468        -2.80089
   C        5.12513        -1.11515        -2.34417
   C        2.83693        -2.19608        -2.31821
   S        1.26983        -2.09118        -3.09539
   C        3.02387        -3.19220        -1.31643
   C        2.07677        -4.12218        -0.92115
   C        2.54515        -4.95340         0.09333
   C        3.86510        -4.65497         0.47884
   S        4.52067        -3.35628        -0.41254
   C        4.25292        -5.53704         1.51508
   C        3.16894        -6.39944         1.78583
   C        2.06481        -6.06331         0.90161
   C        0.83949        -6.65886         0.84292
   C       -0.15339        -6.23524        -0.06564
   N       -0.95814        -5.88851        -0.80513
   C        0.48361        -7.73456         1.68435
   N        0.18498        -8.60869         2.36337
   C        3.44231        -7.30339         2.80207
   C        4.72535        -7.13977         3.31216
   S        5.60687        -5.84589         2.51224
   C        5.32505        -7.87696         4.36338
   C        6.64286        -7.59631         4.78953
   C        7.27358        -8.30745         5.87151
   N        8.52390        -7.99289         6.22606
   C        9.16770        -7.04287         5.59160
   C        8.53893        -6.33275         4.51832
   N        7.31328        -6.62842         4.15663
   C        9.22931        -5.30427         3.83122
   N        9.80464        -4.47453         3.29064
   C       10.49407        -6.72540         5.97555
   N       11.56768        -6.44404         6.25759
   C        6.61646        -9.33545         6.58484
   C        5.30178        -9.63164         6.15033
   C        4.66962        -8.91814         5.06283
   N        3.43512        -9.36827         4.83693
   S        3.09859       -10.55096         5.86486
   N        4.49189       -10.56221         6.65612
   C        7.25149       -10.00075         7.66367
   C        6.71612       -11.01969         8.44463
   C        7.60011       -11.43640         9.42829
   C        8.82433       -10.73162         9.40160
   S        8.87965        -9.55958         8.15905
   C        9.65131       -11.22500        10.43849
   C        8.94543       -12.24014        11.12194
   C        7.63747       -12.40646        10.50929
   C        6.65581       -13.28111        10.87280
   C        5.41835       -13.34756        10.19814
   N        4.40953       -13.40853         9.65659
   C        6.81580       -14.17650        11.95110
   N        6.94826       -14.90239        12.82889
   C        9.67795       -12.78033        12.16506
   C       10.93411       -12.18848        12.29692
   S       11.20281       -10.94174        11.08656
   C       11.86387       -12.57915        13.29776
   C       13.07748       -12.04755        13.75212
   N       13.69678       -10.91761        13.20252
   O       13.29531       -10.51120        12.11427
   O       14.60388       -10.38403        13.80857
   C       13.64674       -12.76566        14.85425
   C       14.92906       -12.43859        15.53394
   C       12.87198       -13.82224        15.20513
   S       11.45000       -13.97231        14.25322
   H        1.13302        -0.33332        -4.77035
   H        5.64385        -0.34909        -2.91135
   H        5.65017        -2.06343        -2.45890
   H        5.15804        -0.84144        -1.28941
   H        1.09690        -4.17738        -1.36045
   H        2.77167        -8.05251         3.18082
   H        5.72910       -11.40855         8.27450
   H        9.33134       -13.56162        12.81794
   H       15.73805       -12.35387        14.81099
   H       15.17148       -13.21213        16.25781
   H       14.85489       -11.47954        16.04328
   H       13.05613       -14.53445        15.98424
*
