# ORCA input file
# SCF done       -226.488184917504          0.000992606878
! CAM-B3LYP def2-SVP def2/J RIJCOSX Grid4 TightSCF
%maxcore 5000
%tddft
    Mode sTDDFT
    Ethresh 5.0
    maxcore 5000
end

%pal
  nprocs 6
  end
* xyz 0 1
   C        6.11537        -6.86226        -5.69789
   C        6.64400        -7.63507        -6.69346
   F        7.65935        -7.17857        -7.43388
   C        6.12428        -8.91838        -6.95634
   F        6.66356        -9.65929        -7.93317
   C        5.07649        -9.40756        -6.22785
   C        4.50448        -8.63130        -5.20205
   C        5.03885        -7.33937        -4.92476
   C        4.49152        -6.54931        -3.88681
   C        3.43207        -7.02674        -3.16086
   C        2.89315        -8.31055        -3.45886
   C        3.41014        -9.10408        -4.44303
   C        1.74011        -8.56357        -2.57821
   O        1.05413        -9.57423        -2.56511
   C        1.61668        -7.38814        -1.71585
   C        2.65337        -6.43900        -2.07202
   C        2.85974        -5.19554        -1.53626
   C        2.06358        -4.58529        -0.54332
   N        1.45356        -4.00595         0.23819
   C        3.90116        -4.32963        -1.93242
   N        4.73130        -3.58557        -2.20601
   C        0.74226        -7.26709        -0.66535
   C       -0.33890        -8.07961        -0.29683
   C       -1.12666        -7.80529         0.82691
   C       -2.20827        -8.65849         0.93545
   C       -2.26470        -9.58894        -0.12739
   S       -0.95137        -9.46334        -1.20107
   C       -3.44390       -10.36498         0.03760
   C       -4.10969        -9.94521         1.19610
   C       -3.35254        -8.87027         1.81182
   C       -3.65262        -8.20669         2.96434
   C       -4.78403        -8.53571         3.74135
   N       -5.69868        -8.81450         4.37423
   C       -2.85098        -7.15804         3.46473
   N       -2.21159        -6.29993         3.87542
   C       -5.31345       -10.63605         1.40945
   C       -5.55082       -11.55121         0.42224
   S       -4.30315       -11.58596        -0.79696
   C       -6.75343       -12.45250         0.32230
   C       -7.08494       -12.98600         1.68245
   N       -7.70044       -12.28259         2.60881
   S       -7.84756       -13.17468         3.95262
   N       -7.12306       -14.50339         3.37299
   C       -6.75018       -14.28655         2.13004
   C       -6.03156       -15.30585         1.29551
   C       -6.17796       -14.91936        -0.14085
   C       -6.50125       -13.61247        -0.58578
   N       -6.55232       -13.52866        -1.89777
   S       -6.21562       -14.97709        -2.54083
   N       -5.99828       -15.75875        -1.13788
   C       -4.58601       -15.33269         1.70040
   C       -4.04311       -15.98123         2.77506
   C       -2.66087       -15.75165         2.87274
   C       -2.18082       -14.91476         1.85708
   S       -3.41630       -14.41354         0.79144
   C       -0.78177       -14.74709         2.02232
   C       -0.37632       -15.49391         3.14648
   C       -1.54714       -16.14519         3.71926
   C       -1.58499       -16.96008         4.81091
   C       -0.42482       -17.28361         5.54756
   N        0.51774       -17.55413         6.14080
   C       -2.78477       -17.54464         5.27171
   N       -3.75491       -18.02599         5.64682
   C        0.99135       -15.42383         3.36912
   C        1.63509       -14.60006         2.45201
   S        0.50828       -13.94396         1.26467
   C        3.02963       -14.41357         2.38718
   C        3.79218       -13.51890         1.69675
   C        5.21747       -13.87517         1.43641
   O        5.83526       -14.78371         1.93807
   C        5.67527       -12.92207         0.40613
   C        6.85753       -12.89744        -0.27482
   C        7.06946       -11.88920        -1.24197
   C        6.04424       -10.93009        -1.48803
   C        6.26818        -9.92010        -2.44436
   C        7.44800        -9.87216        -3.13113
   C        8.45716       -10.82682        -2.89616
   C        8.27381       -11.81368        -1.96807
   F        9.59892       -10.75597        -3.58924
   F        7.65780        -8.90878        -4.04011
   C        4.82547       -10.98803        -0.77362
   C        4.64980       -11.96359         0.17020
   C        3.53563       -12.24135         1.07573
   C        2.60858       -11.30632         1.46163
   C        1.66626       -11.48917         2.49189
   N        0.88966       -11.57979         3.33304
   C        2.59372        -9.98749         0.96866
   N        2.55961        -8.89175         0.62746
   H        6.53109        -5.88659        -5.50220
   H        4.68862       -10.39097        -6.44360
   H        4.92559        -5.58148        -3.69663
   H        2.98483       -10.07551        -4.64561
   H        0.87684        -6.41688        -0.00853
   H       -0.89843        -6.99962         1.50191
   H       -5.98762       -10.47338         2.23094
   H       -7.59579       -11.86136        -0.06003
   H       -6.45711       -16.29905         1.47373
   H       -4.62227       -16.58446         3.44989
   H        1.51763       -15.92043         4.16428
   H        3.60670       -15.17388         2.90874
   H        7.62130       -13.63379        -0.07700
   H        5.51169        -9.17485        -2.62916
   H        9.05766       -12.53395        -1.79380
   H        4.05632       -10.26681        -1.00098
*
