# ORCA input file
# SCF done       -224.413189194146          0.000279517408
! CAM-B3LYP def2-SVP def2/J RIJCOSX Grid4 TightSCF
%maxcore 5000
%tddft
    Mode sTDDFT
    Ethresh 5.0
    maxcore 5000
end

%pal
  nprocs 6
  end
* xyz 0 1
   C        6.97047        -5.02502        -0.52313
   C        7.96409        -5.88080        -0.90706
   F        9.24855        -5.54099        -0.73841
   C        7.65303        -7.12882        -1.48413
   F        8.64784        -7.94768        -1.85148
   C        6.35193        -7.50339        -1.66920
   C        5.30506        -6.64279        -1.28529
   C        5.61789        -5.38101        -0.70099
   C        4.58441        -4.50036        -0.30978
   C        3.27713        -4.87088        -0.49362
   C        2.97487        -6.13348        -1.07581
   C        3.95168        -7.00128        -1.47033
   C        1.51119        -6.28728        -1.18028
   O        0.91492        -7.13785        -1.80124
   C        0.93815        -5.09124        -0.50086
   C        2.02710        -4.17954        -0.19028
   C        1.91986        -2.90936         0.30749
   C        0.70569        -2.23572         0.56140
   N       -0.23812        -1.61939         0.77837
   C        3.02241        -2.08057         0.60752
   N        3.87580        -1.35900         0.86850
   C       -0.38742        -4.91349        -0.27952
   C       -1.36142        -5.97535        -0.35745
   C       -2.63785        -5.76382        -0.87239
   O       -2.93692        -4.53527        -1.41525
   C       -2.22495        -4.17223        -2.58325
   C       -3.63349        -6.78534        -0.85874
   O       -4.91369        -6.64694        -1.25167
   C       -5.43479        -5.44753        -1.78304
   C       -3.32547        -8.05318        -0.36210
   C       -2.04674        -8.28516         0.17568
   C       -1.06261        -7.24288         0.19423
   N        0.06639        -7.62388         0.78554
   S       -0.08302        -9.16567         1.21882
   N       -1.58200        -9.41926         0.70260
   C       -4.28588        -9.14990        -0.40926
   C       -4.56501        -9.91357         0.73467
   C       -5.39920       -11.08217         0.67059
   N       -5.62959       -11.81466         1.78843
   C       -5.09346       -11.42068         2.90149
   C       -4.31509       -10.23634         2.97516
   N       -4.06548        -9.51152         1.92862
   C       -5.99828       -11.49279        -0.53063
   C       -5.76337       -10.70440        -1.66015
   C       -4.90518        -9.54025        -1.60115
   N       -4.75800        -8.97698        -2.80822
   S       -5.61053        -9.81018        -3.87267
   N       -6.19351       -10.94112        -2.90667
   C       -6.90694       -12.63672        -0.54740
   C       -6.59413       -13.89787        -0.06911
   O       -5.32167       -14.31803         0.17748
   C       -4.23320       -13.74101        -0.50765
   C       -7.61345       -14.88919         0.13725
   O       -7.39703       -16.10070         0.68173
   C       -6.19116       -16.48032         1.31718
   C       -8.93200       -14.67366        -0.29296
   C       -9.21520       -13.43454        -0.92810
   C       -8.22643       -12.40293        -1.00133
   N       -8.70902       -11.27768        -1.52021
   S      -10.25218       -11.51333        -1.90916
   N      -10.38598       -13.04300        -1.41739
   C       -9.99973       -15.61820        -0.22674
   C      -10.25699       -16.68226         0.58316
   C      -11.25362       -17.69178         0.12499
   O      -12.01527       -17.59270        -0.80831
   C      -11.07298       -18.85499         1.02033
   C      -11.66006       -20.08505         0.95879
   C      -11.30800       -21.06311         1.91661
   C      -10.34901       -20.74354         2.92082
   C       -9.99628       -21.72573         3.86795
   C      -10.57018       -22.96511         3.82206
   C      -11.51975       -23.27926         2.82991
   C      -11.88217       -22.34890         1.89658
   F      -12.06583       -24.50362         2.80803
   F      -10.23230       -23.89730         4.72418
   C       -9.76506       -19.45635         2.96441
   C      -10.12506       -18.52364         2.02909
   C       -9.71484       -17.13405         1.84026
   C       -9.09908       -16.35492         2.78615
   C       -8.95017       -14.95980         2.66888
   N       -8.82225       -13.82022         2.61936
   C       -8.59227       -16.84712         4.00455
   N       -8.12897       -17.20156         4.99387
   H        7.22605        -4.07357        -0.08349
   H        6.13036        -8.46140        -2.11286
   H        4.85478        -3.55282         0.12729
   H        3.69380        -7.95070        -1.91428
   H       -0.77201        -3.94804         0.02663
   H       -2.52213        -4.80178        -3.42979
   H       -1.14329        -4.25135        -2.44768
   H       -2.49298        -3.13668        -2.78354
   H       -5.28663        -4.60342        -1.10777
   H       -6.50116        -5.64027        -1.90188
   H       -5.00237        -5.21676        -2.75919
   H       -5.29061       -12.02372         3.77729
   H       -3.91997        -9.88397         3.91858
   H       -3.79824       -12.90622         0.04706
   H       -4.51924       -13.40339        -1.50626
   H       -3.48736       -14.53373        -0.59103
   H       -5.85621       -15.72634         2.03007
   H       -5.39952       -16.67651         0.59288
   H       -6.43204       -17.40438         1.84533
   H      -10.74262       -15.47215        -1.00773
   H      -12.38268       -20.31098         0.18948
   H       -9.27343       -21.50100         4.63665
   H      -12.61057       -22.60493         1.14320
   H       -9.04020       -19.24364         3.73409
*
