# ORCA input file
# SCF done       -191.063574899654          0.000552012341
! CAM-B3LYP def2-SVP def2/J RIJCOSX Grid4 TightSCF
%maxcore 5000
%tddft
    Mode sTDDFT
    Ethresh 5.0
    maxcore 5000
end

%pal
  nprocs 6
  end
* xyz 0 1
   C       -6.09227         0.00501         5.84093
   C       -6.70494         0.24728         7.04438
   C       -6.50798        -0.53219         8.20199
   N       -6.37803        -1.12383         9.17751
   C       -7.63321         1.28286         7.27700
   N       -8.40947         2.08960         7.53383
   C       -5.20366        -1.10938         5.54023
   C       -4.89127        -1.07883         4.15734
   C       -4.07208        -2.00692         3.56216
   C       -3.53439        -3.01456         4.36922
   C       -3.84796        -3.03506         5.74905
   C       -4.67780        -2.09607         6.35162
   S       -3.06736        -4.36191         6.55022
   C       -2.34607        -4.86884         5.06189
   C       -2.66885        -4.08566         4.00967
   C       -5.56847         0.06429         3.52694
   O       -5.49615         0.39788         2.35898
   C       -6.27888         0.76266         4.62038
   C       -6.79916         2.02597         4.53339
   C       -7.05711         2.75315         3.35264
   S       -6.86082         4.48527         3.36995
   C       -7.20438         4.62574         1.67161
   C       -7.51156         3.37288         1.14137
   C       -7.45844         2.33687         2.08506
   S       -8.12142         0.73110         1.85987
   C       -8.07829         0.37408         0.13928
   O       -8.51676        -0.68112        -0.23469
   C       -7.55029         1.36374        -0.86835
   O       -7.16435         1.01251        -1.94545
   S       -7.74431         3.11250        -0.58360
   C       -7.10260         5.91497         1.08799
   C       -7.47479         6.26481        -0.16489
   C       -7.31554         7.55725        -0.77116
   C       -7.81783         7.74425        -2.07307
   C       -7.65139         8.94917        -2.70401
   C       -6.97755        10.00536        -2.06134
   C       -6.48732         9.83931        -0.77112
   C       -6.65941         8.62700        -0.14029
   C       -6.91782        11.12934        -2.96107
   C       -7.56233        10.77948        -4.16291
   C       -8.08943         9.36499        -4.08909
   C       -7.45281         8.47202        -5.17020
   C       -5.93024         8.46062        -5.10683
   C       -9.62293         9.32802        -4.22627
   C      -10.33089        10.18387        -3.18286
   C       -7.63307        11.67167        -5.20082
   C       -7.03704        12.94194        -5.07926
   C       -6.40724        13.27530        -3.86661
   C       -6.34820        12.38882        -2.81513
   C       -7.08817        13.83955        -6.19569
   C       -6.39057        15.00033        -6.32244
   C       -6.45640        15.84801        -7.44076
   C       -5.70325        16.98819        -7.57363
   C       -5.70254        17.90780        -8.64905
   C       -4.83396        18.94838        -8.50163
   C       -4.09265        18.91051        -7.30253
   S       -4.54437        17.50579        -6.35719
   C       -3.12872        19.79555        -6.86066
   C       -2.65221        20.96904        -7.48029
   C       -1.68178        21.61724        -6.77536
   C       -1.32215        20.99942        -5.55419
   S       -2.29542        19.54464        -5.34196
   C       -0.36746        21.45187        -4.67628
   C        0.05575        20.88851        -3.46426
   N       -0.41730        19.72197        -2.89277
   C        0.20152        19.43771        -1.72285
   C        1.12741        20.43844        -1.48114
   C        1.03569        21.34522        -2.56941
   N        1.93181        22.34462        -2.36670
   C        2.58858        22.09985        -1.18754
   C        2.13795        20.94114        -0.59681
   C        2.55897        20.32477         0.63748
   C        3.49652        20.79001         1.45762
   H       -3.85602        -1.95864         2.50613
   H       -4.88390        -2.15127         7.40760
   H       -1.71433        -5.73568         5.06803
   H       -2.31477        -4.24675         3.00754
   H       -6.95034         2.58176         5.45102
   H       -6.69389         6.66111         1.75547
   H       -7.94114         5.52106        -0.79508
   H       -8.32554         6.92604        -2.56352
   H       -5.97271        10.64684        -0.27202
   H       -6.26892         8.49724         0.85689
   H       -7.77183         8.82996        -6.15135
   H       -7.82786         7.45383        -5.04831
   H       -5.53199         9.46294        -5.24894
   H       -5.52861         7.81668        -5.88572
   H       -5.58843         8.08904        -4.14330
   H       -9.95745         8.29264        -4.13374
   H       -9.89196         9.67821        -5.22510
   H      -10.09573         9.83897        -2.17830
   H      -11.40809        10.12847        -3.32216
   H      -10.02551        11.22446        -3.26832
   H       -8.12590        11.40782        -6.12611
   H       -5.96834        14.25400        -3.75106
   H       -5.86253        12.66760        -1.89158
   H       -7.72123        13.53437        -7.02039
   H       -5.71648        15.31186        -5.53533
   H       -7.13122        15.59593        -8.24812
   H       -6.34645        17.77015        -9.50001
   H       -4.70531        19.73603        -9.22269
   H       -3.03759        21.30350        -8.42663
   H       -1.20627        22.52681        -7.09868
   H        0.13463        22.36845        -4.95790
   H       -1.13840        19.15532        -3.30856
   H       -0.05313        18.56403        -1.15713
   H        2.09954        23.13384        -2.96703
   H        3.34421        22.77951        -0.84555
   H        2.04121        19.40577         0.88065
   H        4.03327        21.70076         1.25520
   H        3.75639        20.27396         2.36520
*
