# ORCA input file
# SCF done       -147.653094286623          0.000997255264
! CAM-B3LYP def2-SVP def2/J RIJCOSX Grid4 TightSCF
%maxcore 5000
%tddft
    Mode sTDDFT
    Ethresh 5.0
    maxcore 5000
end

%pal
  nprocs 6
  end
* xyz 0 1
   C       -9.42636        -2.66121        -1.46309
   C       -8.94859        -2.72561        -2.74510
   C       -9.16582        -3.81610        -3.61431
   N       -9.31352        -4.67088        -4.36534
   C       -8.14864        -1.74297        -3.36781
   N       -7.47884        -1.00312        -3.93474
   C      -10.16873        -3.71277        -0.78010
   C      -10.36075        -3.33093         0.57049
   C      -11.03112        -4.11880         1.47493
   C      -11.53471        -5.34400         1.02670
   C      -11.33889        -5.71733        -0.32518
   C      -10.66238        -4.92009        -1.23979
   S      -12.04679        -7.26555        -0.66947
   C      -12.58953        -7.38953         0.98304
   C      -12.25776        -6.32716         1.75520
  Br      -13.54176        -8.90818         1.53288
   C       -9.76284        -2.00182         0.79893
   O       -9.79411        -1.36718         1.83131
   C       -9.21339        -1.58132        -0.51249
   C       -8.74885        -0.33688        -0.81954
   C       -8.40580         0.71104         0.06676
   S       -8.28491         2.34339        -0.63237
   C       -7.73236         3.09218         0.86705
   C       -7.64618         2.08909         1.81047
   C       -8.01893         0.79578         1.37388
   C       -7.70283         0.29383         2.76358
   N       -7.46476         1.70474         3.12146
   C       -7.56422         4.49416         0.95621
   S       -8.37366         5.53635        -0.16544
   C       -7.84210         6.91972         0.72867
   N       -8.22499         8.19451         0.28822
   O       -7.85991         9.15102         0.94577
   O       -8.90798         8.24655        -0.71846
   C       -7.07688         6.59966         1.81968
   C       -6.89705         5.21362         1.95660
   C       -6.05737         4.65344         2.98825
   S       -4.81791         3.50895         2.59194
   C       -4.18454         3.64497         4.20003
   N       -3.07729         2.85152         4.54405
   O       -2.60999         2.98671         5.65726
   O       -2.67646         2.07497         3.69583
   C       -4.88527         4.51674         4.98889
   C       -5.98709         5.08457         4.31370
   C       -6.93877         5.94973         4.96192
   C       -8.28273         5.94369         4.76543
   C       -9.23168         6.81976         5.37818
   C      -10.51931         6.58766         5.02997
   C      -10.68974         5.50534         4.12522
   S       -9.13542         4.77731         3.75853
   C      -11.83553         5.03867         3.53852
   C      -13.16779         5.51746         3.71335
   C      -14.09193         4.85820         2.98497
   C      -13.56438         3.79674         2.17193
   S      -11.80972         3.70478         2.40158
   C      -14.23950         2.97786         1.35680
   H      -11.16399        -3.79891         2.49650
   H      -10.54553        -5.24582        -2.25971
   H      -12.51266        -6.23926         2.79547
   H       -8.63046        -0.08292        -1.86580
   H       -6.82191        -0.34566         2.82049
   H       -8.54190        -0.15371         3.29211
   H       -6.76850         2.04292         3.76431
   H       -6.65208         7.33772         2.47553
   H       -4.63202         4.71099         6.01548
   H       -6.54415         6.60994         5.72187
   H       -8.91020         7.60195         6.04264
   H      -11.35606         7.16153         5.38585
   H      -13.38337         6.33720         4.37529
   H      -15.14510         5.07659         2.98172
   H      -15.30582         3.06916         1.24631
   H      -13.74484         2.21240         0.78760
*
