# ORCA input file
# SCF done       -178.998426655217          0.000846329017
! CAM-B3LYP def2-SVP def2/J RIJCOSX Grid4 TightSCF
%maxcore 5000
%tddft
    Mode sTDDFT
    Ethresh 5.0
    maxcore 5000
end

%pal
  nprocs 6
  end
* xyz 0 1
   C       -6.73617        -2.51150        -1.09448
   C       -5.52643        -3.15333        -1.04831
   C       -5.37138        -4.55384        -1.11962
   N       -5.17941        -5.68372        -1.18210
   C       -4.27139        -2.52172        -0.91446
   N       -3.21173        -2.09653        -0.79321
   C       -8.04037        -3.15930        -1.15220
   C       -9.04629        -2.16328        -1.10995
   C      -10.38737        -2.45981        -1.13720
   C      -10.75548        -3.80697        -1.20535
   C       -9.74405        -4.79649        -1.25314
   C       -8.38811        -4.49575        -1.22812
   S      -10.41896        -6.39447        -1.34720
   C      -12.02727        -5.72135        -1.32026
   C      -12.06034        -4.36982        -1.24375
  Br      -13.50918        -6.86593        -1.40029
   C       -8.42042        -0.83024        -1.06170
   O       -9.00032         0.23106        -1.16481
   C       -6.95374        -1.07799        -1.01375
   C       -5.99541        -0.11008        -1.05982
   C       -6.21253         1.26259        -0.74945
   C       -7.14470         1.68076         0.22554
   C       -7.47504         3.07171         0.40874
   N       -8.55354         3.40409         1.13220
   C       -9.21613         2.47282         1.76051
   C       -8.70583         1.12674         1.79978
   N       -7.71161         0.77449         1.03160
   C       -9.28035         0.16422         2.66518
   N       -9.78772        -0.60656         3.34408
   C      -10.41428         2.80209         2.43967
   N      -11.38993         3.02695         2.99620
   C       -6.74621         4.08502        -0.24200
   C       -5.70917         3.68272        -1.09379
   C       -5.46112         2.28321        -1.36342
   N       -4.47597         2.12254        -2.24816
   S       -3.90780         3.56629        -2.65929
   N       -4.86824         4.47386        -1.76744
   N       -7.10936         5.41005        -0.12316
   C       -7.33269         6.26607        -1.24622
   O       -7.17666         5.91611        -2.38950
   C       -7.80389         7.50964        -0.69262
   C       -7.84832         7.43478         0.67667
   C       -7.38063         6.07084         1.06949
   O       -7.21047         5.62630         2.17363
   C       -8.22373         8.34502         1.67040
   C       -8.76209         9.60023         1.48083
   C       -9.13886        10.51023         2.49669
   C       -9.69528        11.66977         2.03724
   C       -9.79462        11.73135         0.63432
   S       -9.13015        10.27906        -0.08395
   C      -10.34693        12.72302        -0.16082
   C      -10.90619        13.96001         0.22490
   C      -11.39147        14.69029        -0.81882
   C      -11.25429        14.07270        -2.08735
   S      -10.45039        12.52258        -1.88769
   C      -11.70485        14.58850        -3.27719
   C      -11.65687        14.01702        -4.56407
   C      -11.08940        12.75891        -4.96324
   C      -11.30056        12.58353        -6.31721
   C      -10.95434        11.52088        -7.17827
   C      -11.32608        11.62482        -8.49247
   C      -11.15110        10.74613        -9.60328
   C      -11.72961        11.31880       -10.72592
   C      -12.28035        12.57791       -10.34446
   C      -12.04627        12.78526        -8.98794
   C      -12.38387        13.84608        -8.13874
   C      -12.01512        13.74707        -6.81124
   C      -12.21107        14.60877        -5.70906
   C      -11.75736        10.71900       -12.03868
   C      -12.32984        11.24591       -13.11753
   H      -11.12897        -1.67714        -1.10326
   H       -7.65701        -5.28567        -1.27060
   H      -12.96567        -3.79143        -1.21560
   H       -4.98805        -0.35771        -1.36850
   H       -8.08193         8.33044        -1.32406
   H       -8.09315         8.00823         2.69064
   H       -8.99150        10.27663         3.53599
   H      -10.04407        12.46576         2.67048
   H      -10.93572        14.27550         1.25213
   H      -11.85521        15.65589        -0.71718
   H      -12.18465        15.55834        -3.21399
   H      -10.58322        12.06592        -4.31868
   H      -10.42144        10.66070        -6.79930
   H      -10.65224         9.79501        -9.56448
   H      -12.79401        13.25696       -10.99992
   H      -12.91904        14.70692        -8.51400
   H      -12.71158        15.55922        -5.74060
   H      -11.26375         9.75789       -12.10956
   H      -12.83622        12.19564       -13.09526
   H      -12.31530        10.73772       -14.06575
*
