# ORCA input file
# SCF done       -208.438740404669          0.000737210333
! CAM-B3LYP def2-SVP def2/J RIJCOSX Grid4 TightSCF
%maxcore 5000
%tddft
    Mode sTDDFT
    Ethresh 5.0
    maxcore 5000
end

%pal
  nprocs 6
  end
* xyz 0 1
   C       -4.40433        12.18346        -0.46025
   C       -4.78347        13.12989         0.45891
   C       -4.30413        14.45436         0.47982
   N       -3.94699        15.54345         0.54787
   C       -5.71463        12.89369         1.48836
   N       -6.47649        12.73829         2.33452
   C       -3.47314        12.39143        -1.56775
   C       -3.38129        11.19317        -2.32181
   C       -2.57346        11.07071        -3.42559
   C       -1.82049        12.18618        -3.80893
   C       -1.92259        13.37923        -3.05523
   C       -2.73879        13.50134        -1.93593
   S       -0.91384        14.63417        -3.70658
   C       -0.37236        13.55436        -4.96461
   C       -0.91999        12.31680        -4.90094
  Br        0.85586        14.16513        -6.24604
   C       -4.25577        10.18394        -1.70919
   O       -4.43893         9.02900        -2.08490
   C       -4.85539        10.81667        -0.53916
   C       -5.66960        10.11894         0.32620
   N       -5.97632         8.84413         0.10909
   C       -6.78059         8.05111         0.91056
   C       -7.69086         8.53636         1.81125
   S       -8.57666         7.29851         2.58531
   C       -7.71635         6.09367         1.71720
   C       -6.78280         6.61330         0.86090
   N       -6.00741         5.80266         0.05751
   C       -4.75178         6.03058        -0.44984
   C       -4.04433         5.08408        -1.08634
   C       -2.74582         5.28617        -1.69265
   C       -1.92647         4.17271        -1.93359
   C       -0.69573         4.33992        -2.52195
   C       -0.24445         5.62971        -2.85630
   C       -1.05221         6.73723        -2.63726
   C       -2.29532         6.55806        -2.06904
   C        1.09518         5.53201        -3.38137
   C        1.48826         4.18140        -3.36063
   C        0.34892         3.30546        -2.87985
   C        0.74683         2.43962        -1.67620
   C        1.28943         3.27128        -0.51956
   C       -0.08605         2.44037        -4.08677
   C       -1.35530         1.62101        -3.89555
   C        2.74025         3.81617        -3.78185
   C        3.63699         4.79462        -4.25541
   C        3.22166         6.13794        -4.27382
   C        1.96995         6.51035        -3.83847
   C        4.93544         4.38434        -4.69970
   C        5.84626         5.16068        -5.34850
   C        7.11063         4.71041        -5.76087
   C        8.00250         5.48579        -6.46072
   C        9.29689         5.12965        -6.90628
   C        9.94247         6.11294        -7.59546
   C        9.18954         7.29934        -7.73685
   S        7.64146         7.13578        -6.95488
   C        9.54572         8.46353        -8.39937
   C       10.74302         8.74627        -9.08456
   C       10.76971         9.98855        -9.65252
   C        9.59471        10.74226        -9.44700
   S        8.45634         9.83108        -8.48845
   C        9.33872        12.01976        -9.91532
   C        8.13508        12.67727        -9.70782
   C        7.75708        13.93967       -10.12121
   C        8.49988        15.05011       -10.64332
   C        9.82850        15.34469       -10.42931
   C       10.47705        16.47745       -10.95526
   N       11.06621        17.37117       -11.37362
   C       10.67971        14.62328        -9.57127
   N       11.41561        14.11144        -8.85230
   C        7.54162        15.95504       -11.28228
   C        6.23077        15.51043       -10.98131
   C        6.31688        14.26075       -10.19388
   O        5.39773        13.61169        -9.73982
   C        5.10841        16.17134       -11.41322
   C        5.28734        17.31942       -12.19400
   C        6.59897        17.74612       -12.50143
   C        7.73658        17.08328       -12.05325
   S        6.59078        19.17572       -13.49092
   C        4.84715        19.17962       -13.47541
   C        4.29784        18.16580       -12.76715
  Br        3.91654        20.52273       -14.39845
   H       -2.52389        10.14500        -3.97783
   H       -2.77923        14.43105        -1.39341
   H       -0.69964        11.52878        -5.59773
   H       -6.05580        10.57630         1.22554
   H       -5.59532         8.44896        -0.75911
   H       -7.90949         9.56022         2.03813
   H       -7.94233         5.05905         1.87850
   H       -6.31139         4.83846         0.02488
   H       -4.34019         7.01212        -0.29007
   H       -4.45245         4.08270        -1.15425
   H       -2.27090         3.19518        -1.62906
   H       -0.71328         7.72597        -2.90999
   H       -2.94353         7.40952        -1.94090
   H        1.50381         1.71916        -1.99367
   H       -0.12490         1.88087        -1.33322
   H        2.17668         3.82200        -0.82407
   H        1.55359         2.62668         0.31577
   H        0.54309         3.98657        -0.18085
   H        0.74042         1.76748        -4.32710
   H       -0.22703         3.10683        -4.94191
   H       -1.27092         0.94967        -3.04498
   H       -1.53086         1.01791        -4.78399
   H       -2.21540         2.26912        -3.75286
   H        3.05258         2.78140        -3.76458
   H        3.90251         6.89906        -4.62088
   H        1.67353         7.54855        -3.85146
   H        5.19361         3.34837        -4.51315
   H        5.60757         6.18770        -5.58903
   H        7.40726         3.69781        -5.51993
   H        9.71100         4.15773        -6.70311
   H       10.93125         6.01587        -8.00594
   H       11.54847         8.03661        -9.14589
   H       11.59874        10.38643       -10.20988
   H       10.12122        12.48500       -10.49589
   H        7.33620        12.10660        -9.24163
   H        4.12240        15.81422       -11.16039
   H        8.71593        17.44636       -12.31724
   H        3.23964        18.01705       -12.65226
*
