# ORCA input file
# SCF done       -195.768870342600          0.000280941626
! CAM-B3LYP def2-SVP def2/J RIJCOSX Grid4 TightSCF
%maxcore 5000
%tddft
    Mode sTDDFT
    Ethresh 5.0
    maxcore 5000
end

%pal
  nprocs 6
  end
* xyz 0 1
   C       -6.59646         2.61683         8.14962
   C       -7.40379         3.71051         8.29590
   F       -7.70064         4.16928         9.51758
   C       -7.93273         4.36775         7.16691
   F       -8.72083         5.43663         7.33905
   C       -7.64687         3.92200         5.90668
   C       -6.81806         2.79829         5.72383
   C       -6.28260         2.13265         6.86436
   C       -5.44701         1.00219         6.70519
   C       -5.15558         0.55245         5.44560
   C       -5.69543         1.22515         4.31081
   C       -6.50520         2.31779         4.43305
   C       -5.23116         0.54999         3.09425
   O       -5.48333         0.85056         1.93055
   C       -4.39186        -0.56677         3.53971
   C       -4.33606        -0.56788         4.98322
   C       -3.64912        -1.44205         5.78379
   C       -2.86813        -2.50954         5.29509
   N       -2.22440        -3.38857         4.93403
   C       -3.63512        -1.38270         7.19254
   N       -3.58771        -1.38080         8.33923
   C       -3.80038        -1.42002         2.63793
   N       -3.99594        -1.23415         1.32916
   C       -3.51338        -1.97110         0.30104
   S       -2.49221        -3.34976         0.55190
   C       -2.43617        -3.58695        -1.16496
   N       -1.67777        -4.66901        -1.64359
   O       -1.63837        -4.84247        -2.84456
   O       -1.11690        -5.35032        -0.80541
   C       -3.15542        -2.66808        -1.87775
   C       -3.78986        -1.71762        -1.05115
   C       -4.63215        -0.64363        -1.48781
   C       -5.01678        -0.41767        -2.76059
   C       -5.91990         0.61911        -3.12340
   C       -6.44527         0.83824        -4.39002
   C       -6.08522         0.02885        -5.47852
   N       -5.76423        -0.66853        -6.33043
   C       -7.39179         1.89431        -4.41527
   C       -7.54747         2.45327        -3.15040
   S       -6.56566         1.73139        -1.93877
   S       -8.74253         3.70071        -3.04133
   C       -9.05570         3.47137        -4.73288
   C       -8.27946         2.50051        -5.34890
   C       -8.64675         2.34830        -6.71828
   C       -8.03997         1.49623        -7.65770
   N       -7.55923         0.84260        -8.46685
   C       -9.70795         3.14653        -7.07060
   S      -10.22487         4.19147        -5.77213
   C      -10.38941         3.23874        -8.36381
   C       -9.96279         4.23929        -9.25338
   C      -10.65374         4.42454       -10.48797
   C      -10.21446         5.43580       -11.37989
   C       -9.14980         6.22438       -11.07171
   C       -8.46377         6.04213        -9.85345
   C       -8.85622         5.08171        -8.97208
   C      -11.74984         3.61956       -10.77164
   C      -12.17593         2.62286        -9.89933
   C      -11.47787         2.40160        -8.66693
   C      -11.94082         1.34454        -7.82119
   C      -13.04238         0.61343        -8.18089
   C      -13.74078         0.85938        -9.37570
   C      -13.30762         1.83168       -10.22075
   C      -11.24715         0.91373        -6.59341
   C      -11.47320         1.29830        -5.29414
   C      -10.60100         0.54181        -4.43540
   C      -10.38539         0.58264        -3.08390
   C       -9.41677        -0.29433        -2.55064
   C       -8.95691        -0.47919        -1.25498
   C       -7.96734        -1.51295        -1.25517
   C       -7.81660        -1.95874        -2.55489
   C       -8.70085        -1.21924        -3.40194
   C       -8.91630        -1.25921        -4.75625
   C       -9.86183        -0.36274        -5.28815
   C      -10.27219        -0.13106        -6.59461
   C       -7.24854        -2.02423        -0.11410
   C       -7.34949        -1.57434         1.13422
   H       -6.19995         2.12589         9.02460
   H       -8.05915         4.43651         5.05284
   H       -5.05827         0.52146         7.58815
   H       -6.90011         2.80956         3.55702
   H       -3.17565        -2.25073         2.94037
   H       -4.61836        -0.43046         1.11761
   H       -3.20948        -2.69000        -2.95065
   H       -5.01530         0.02192        -0.72547
   H       -4.67971        -1.04398        -3.57444
   H      -10.74749         5.56149       -12.31108
   H       -8.81844         6.99288       -11.75389
   H       -7.61742         6.67314        -9.62624
   H       -8.31488         4.94769        -8.04688
   H      -12.29253         3.77373       -11.69370
   H      -13.37489        -0.18339        -7.53084
   H      -14.60542         0.25912        -9.61550
   H      -13.81398         2.02319       -11.15528
   H      -12.17526         2.04162        -4.96201
   H      -10.92638         1.26086        -2.43803
   H       -9.28981         0.06109        -0.38767
   H       -7.15135        -2.73410        -2.88843
   H       -8.37911        -1.93627        -5.40442
   H       -9.92173        -0.63999        -7.47404
   H       -6.58624        -2.85399        -0.33237
   H       -7.99096        -0.75234         1.39914
   H       -6.79716        -2.02351         1.94263
*
