# ORCA input file
# SCF done       -204.594140525778          0.000386958919
! CAM-B3LYP def2-SVP def2/J RIJCOSX Grid4 TightSCF
%maxcore 5000
%tddft
    Mode sTDDFT
    Ethresh 5.0
    maxcore 5000
end

%pal
  nprocs 6
  end
* xyz 0 1
   C      -14.34111        -8.66911        -8.42018
   C      -15.57198        -8.14618        -8.13654
   F      -16.65250        -8.56195        -8.81505
   C      -15.72208        -7.16289        -7.14123
   F      -16.94057        -6.65666        -6.89496
   C      -14.64019        -6.71827        -6.43386
   C      -13.35576        -7.21638        -6.72283
   C      -13.20090        -8.20139        -7.73992
   C      -11.91207        -8.67508        -8.08544
   C      -10.81614        -8.16971        -7.44207
   C      -10.98518        -7.20934        -6.40292
   C      -12.21380        -6.73625        -6.04331
   C       -9.67079        -6.88716        -5.84184
   O       -9.42442        -6.09923        -4.93036
   C       -8.69658        -7.70482        -6.56902
   C       -9.38622        -8.44503        -7.59482
   C       -8.82528        -9.21721        -8.58127
   C       -9.55946        -9.81754        -9.62114
   N      -10.10716       -10.30010       -10.50849
   C       -7.44131        -9.45327        -8.70154
   N       -6.32183        -9.67150        -8.83289
   C       -7.35954        -7.70072        -6.22347
   N       -6.95642        -6.89788        -5.23573
   C       -5.73840        -6.76066        -4.66566
   S       -4.37420        -7.74707        -5.08211
   C       -3.44694        -6.92931        -3.86165
   N       -2.11210        -7.32633        -3.69649
   O       -1.45095        -6.75535        -2.85139
   O       -1.71640        -8.22353        -4.42016
   C       -4.14122        -5.96434        -3.18371
   C       -5.46919        -5.83864        -3.63671
   C       -6.45284        -4.90933        -3.17858
   C       -6.40147        -4.12154        -2.08002
   C       -7.48498        -3.26461        -1.75261
   S       -8.82808        -3.10321        -2.85128
   C       -7.68608        -2.50673        -0.60302
   C       -6.72577        -2.46309         0.51703
   O       -5.65396        -3.04810         0.52125
   C       -7.20264        -1.65187         1.62337
   C       -6.61453        -1.40525         2.84544
   N       -7.43594        -0.60802         3.56746
   C       -7.14653        -0.08463         4.87837
   C       -6.41140         1.25112         4.78800
   C       -8.54044        -0.31750         2.83744
   C       -8.44275        -0.95124         1.61899
   C       -9.38073        -0.96368         0.50566
   O      -10.43459        -0.34343         0.51071
   C       -8.92144        -1.80751        -0.60527
   C       -9.67122        -2.02769        -1.76726
   C      -10.94347        -1.54159        -2.10557
   C      -11.57787        -1.90278        -3.26737
   C      -12.86309        -1.52241        -3.64456
   C      -13.47186        -1.97266        -4.80074
   C      -14.79182        -1.72723        -5.23165
   C      -15.13339        -2.36666        -6.39116
   C      -14.09236        -3.13393        -6.94534
   S      -12.65774        -3.02138        -5.95014
   C      -14.12696        -3.94009        -8.07410
   C      -15.25111        -4.29610        -8.84580
   C      -14.99611        -5.23888        -9.79896
   C      -13.65128        -5.66732        -9.85256
   S      -12.70464        -4.75446        -8.67279
   C      -13.02571        -6.66230       -10.56368
   C      -13.57506        -7.66014       -11.39355
   C      -12.75172        -8.72383       -11.91612
   C      -13.54786        -9.61669       -12.59888
   C      -13.23947       -10.82695       -13.26045
   C      -14.27353       -11.51199       -13.83698
   C      -14.31577       -12.74395       -14.56085
   C      -15.62482       -13.00571       -14.92517
   C      -16.44203       -11.93804       -14.43898
   C      -15.64045       -11.01924       -13.77530
   C      -15.95001        -9.81786       -13.12093
   C      -14.91270        -9.12241       -12.53651
   C      -14.89086        -7.91852       -11.79286
   C      -16.06434       -14.16474       -15.66441
   C      -17.32135       -14.43303       -16.00715
   H      -14.24598        -9.42294        -9.18563
   H      -14.77124        -5.96823        -5.66966
   H      -11.83251        -9.41939        -8.86132
   H      -12.31112        -5.99714        -5.26320
   H       -6.62193        -8.32871        -6.70624
   H       -7.74012        -6.34064        -4.83225
   H       -3.70063        -5.37029        -2.40404
   H       -7.35049        -4.83650        -3.77989
   H       -5.57067        -4.13167        -1.39033
   H       -5.67882        -1.75861         3.23100
   H       -6.53337        -0.81306         5.41530
   H       -8.08916         0.04329         5.41707
   H       -5.47010         1.12975         4.25750
   H       -6.20444         1.62958         5.78496
   H       -7.01663         1.98069         4.25540
   H       -9.32711         0.30323         3.21793
   H      -11.41898        -0.88241        -1.39351
   H      -11.05082        -2.56587        -3.94648
   H      -13.43246        -0.87025        -2.99649
   H      -15.45742        -1.09743        -4.66833
   H      -16.10035        -2.29790        -6.85613
   H      -16.22475        -3.88093        -8.65681
   H      -15.74774        -5.62564       -10.46011
   H      -11.95608        -6.74263       -10.40807
   H      -11.69079        -8.80803       -11.76259
   H      -12.22042       -11.18438       -13.29003
   H      -13.46230       -13.35943       -14.77908
   H      -17.50609       -11.86174       -14.56708
   H      -16.96876        -9.46016       -13.07391
   H      -15.76362        -7.33415       -11.57810
   H      -15.27531       -14.85183       -15.94435
   H      -18.13951       -13.78201       -15.75055
   H      -17.57663       -15.32085       -16.55910
*
