# ORCA input file
# SCF done       -153.202521318887          0.000443029693
! CAM-B3LYP def2-SVP def2/J RIJCOSX Grid4 TightSCF
%maxcore 5000
%tddft
    Mode sTDDFT
    Ethresh 5.0
    maxcore 5000
end

%pal
  nprocs 6
  end
* xyz 0 1
   C       14.46047        -4.16119         2.70289
   C       13.93570        -4.33915         3.92794
   C       13.66275        -3.34967         4.92116
   C       13.08564        -3.83871         6.05073
   C       12.84245        -5.22854         6.02302
   S       13.41115        -5.92071         4.52357
   C       12.25438        -6.00719         7.01207
   C       11.75842        -5.60288         8.25792
   C       11.21813        -6.63571         8.98635
   C       11.23575        -7.87832         8.34048
   S       12.00447        -7.72209         6.78671
   C       10.77271        -9.05753         8.94989
   C       10.62715       -10.35308         8.53658
   C       10.79637       -11.03331         7.31373
   C       10.60790       -12.40915         7.19120
   C       10.77343       -12.90062         5.90929
   C       11.08803       -11.91541         4.98343
   S       11.16943       -10.35296         5.75518
   C       11.33997       -12.06895         3.60461
   C       11.34113       -13.23282         2.84812
   C       11.65118       -13.03282         1.51357
   C       11.89980       -11.70556         1.17498
   S       11.73397       -10.70028         2.60123
   C       12.21855       -11.23051        -0.10723
   C       12.43753        -9.93323        -0.49517
   N       12.41262        -8.81000         0.29067
   C       12.59327        -7.64026        -0.41280
   C       12.78856        -8.03737        -1.77909
   C       12.69965        -9.45723        -1.82844
   N       12.83713       -10.13815        -2.95948
   C       13.06849        -9.39421        -4.03020
   C       13.16228        -8.00068        -3.98194
   N       13.02208        -7.30624        -2.86363
   C       12.52323        -6.41750         0.20274
   C       12.65062        -5.16239        -0.40596
   C       12.39814        -3.96790         0.21945
   C       11.82998        -3.76616         1.49692
   C       11.75476        -2.55911         2.19267
   C       11.13664        -2.64545         3.42745
   C       10.65375        -3.91914         3.71579
   S       10.99412        -5.00287         2.39893
   C       10.04719        -4.42872         4.87380
   C        9.76900        -3.79924         6.08598
   C        9.20750        -4.63827         7.02604
   C        9.00413        -5.94678         6.57573
   S        9.54497        -6.09861         4.92053
   C        8.49409        -7.03198         7.28772
   C        8.33151        -8.28995         6.75087
   C        7.86404        -9.40348         7.43469
   C        7.70091       -10.69739         6.91313
   C        7.26976       -11.62242         7.82363
   C        7.06694       -11.09539         9.11406
   S        7.40650        -9.37654         9.12545
   C        6.67827       -11.76843        10.25673
   C        6.37151       -13.14552        10.38493
   C        6.03114       -13.52992        11.63945
   C        6.04483       -12.47282        12.60484
   S        6.51785       -10.96472        11.80568
   C        5.75818       -12.54608        13.91400
   H       14.77155        -3.18464         2.37812
   H       14.62143        -4.98251         2.02964
   H       13.92235        -2.31915         4.75830
   H       12.81485        -3.23916         6.90152
   H       11.82066        -4.58722         8.60374
   H       10.79408        -6.51821         9.96849
   H       10.46402        -8.88304         9.97533
   H       10.28464       -11.02827         9.31485
   H       10.36064       -13.02502         8.03836
   H       10.67490       -13.93851         5.64704
   H       11.12281       -14.19637         3.27190
   H       11.69903       -13.82318         0.78567
   H       12.28283       -11.97127        -0.89114
   H       12.23394        -8.81685         1.28163
   H       13.18341        -9.92939        -4.96248
   H       13.35603        -7.42376        -4.87547
   H       12.36148        -6.45898         1.27045
   H       12.98759        -5.14719        -1.43285
   H       12.64890        -3.05671        -0.30892
   H       12.18435        -1.65194         1.80447
   H       11.01502        -1.81475         4.09925
   H        9.99265        -2.76146         6.25801
   H        8.92887        -4.33241         8.01909
   H        8.20157        -6.85786         8.31511
   H        8.61032        -8.44399         5.71537
   H        7.91648       -10.91787         5.88207
   H        7.10453       -12.66017         7.59674
   H        6.41164       -13.80912         9.53904
   H        5.76718       -14.53250        11.92558
   H        5.47499       -13.48217        14.36152
   H        5.80116       -11.68225        14.55123
*
