# ORCA input file
# SCF done       -198.950998987709          0.000254545739
! CAM-B3LYP def2-SVP def2/J RIJCOSX Grid4 TightSCF
%maxcore 5000
%tddft
    Mode sTDDFT
    Ethresh 5.0
    maxcore 5000
end

%pal
  nprocs 6
  end
* xyz 0 1
   C       12.78125       -18.24025         8.56598
   C       12.97151       -17.52540         7.44946
   C       14.20993       -17.27189         6.76851
   C       14.09245       -16.51489         5.65675
   C       12.76053       -16.10516         5.36214
   S       11.65474       -16.72933         6.57348
   C       12.33659       -15.34098         4.30585
   C       13.11511       -14.78218         3.25876
   C       12.39518       -14.07694         2.35394
   C       10.99153       -14.01864         2.61045
   S       10.64848       -14.91939         4.08408
   C       10.10027       -13.36977         1.80857
   C        8.68265       -13.21789         1.92047
   C        7.92954       -13.70720         3.00242
   C        6.57151       -13.52314         3.02397
   C        5.91571       -12.84740         1.97894
   C        6.64588       -12.34821         0.90597
   C        8.00926       -12.53441         0.88853
   C        4.50124       -12.83338         2.25823
   C        4.27562       -13.50221         3.47822
   C        5.58588       -13.93066         4.09800
   C        5.92107       -13.09560         5.35723
   C        4.93501       -13.20872         6.51248
   C        5.63453       -15.43716         4.38966
   C        5.43677       -16.27736         3.13321
   C        2.99504       -13.69730         3.92755
   C        1.90773       -13.17276         3.20339
   C        2.15374       -12.48865         2.00196
   C        3.43512       -12.32858         1.52256
   C        0.59334       -13.35284         3.74563
   C       -0.54927       -12.75409         3.33251
   C       -1.79381       -12.90355         3.98352
   S       -1.93591       -13.76636         5.47908
   C       -3.57668       -13.24810         5.74407
   C       -4.02102       -12.47537         4.65813
   C       -3.02232       -12.32045         3.64649
   C       -3.33299       -11.57770         2.47978
   C       -2.49030       -11.54801         1.27943
   O       -2.15708       -10.57187         0.65910
   C       -2.20199       -12.94697         0.63467
   F       -0.94128       -13.06296         0.20617
   F       -2.45367       -14.00140         1.41968
   F       -2.99826       -13.08060        -0.43961
   C       -4.53504       -10.90198         2.41142
   C       -5.48454       -11.01722         3.43454
   C       -5.25156       -11.80765         4.52896
   C       -4.28678       -13.67973         6.88138
   S       -6.00592       -13.97791         6.79716
   C       -6.02674       -14.76963         8.34159
   C       -4.74086       -14.79171         8.91452
   C       -3.77265       -14.10953         8.11539
   C       -2.46608       -13.91239         8.64422
   C       -1.58982       -12.85650         8.13442
   O       -1.93816       -11.75978         7.77596
   C       -0.06178       -13.17222         8.18165
   F        0.47965       -12.86800         9.37306
   F        0.20786       -14.46862         7.95722
   F        0.60570       -12.47594         7.26003
   C       -2.11263       -14.56121         9.81397
   C       -3.04489       -15.32227        10.52718
   C       -4.35091       -15.40195        10.11645
   C       -7.25270       -15.25341         8.81266
   C       -8.45449       -15.12344         8.09945
   N       -8.55189       -14.55059         6.89388
   C       -9.75443       -14.50805         6.37583
   C      -10.88188       -15.03703         7.04704
   N      -10.81779       -15.60476         8.22208
   C       -9.59105       -15.66151         8.78187
   C       -9.27292       -16.21346        10.02175
   S       -7.56681       -16.05089        10.32246
   C      -10.17873       -16.82592        10.93574
   C       -9.84508       -17.34195        12.12045
   H       13.61054       -18.70854         9.06601
   H       11.80473       -18.36951         8.99522
   H       15.13401       -17.67188         7.14684
   H       14.91653       -16.22930         5.02695
   H       14.18016       -14.92217         3.20922
   H       12.81705       -13.58523         1.49460
   H       10.54069       -12.89563         0.93836
   H        8.41671       -14.22533         3.81172
   H        6.15286       -11.82467         0.10048
   H        8.58718       -12.15221         0.05885
   H        5.98651       -12.04676         5.05537
   H        6.91180       -13.40217         5.70047
   H        3.96088       -12.81556         6.23481
   H        5.30360       -12.62775         7.35530
   H        4.82271       -14.23900         6.83938
   H        4.85485       -15.68705         5.11010
   H        6.60018       -15.67738         4.83928
   H        4.47455       -16.06024         2.67413
   H        5.46940       -17.33579         3.38132
   H        6.21826       -16.07066         2.40543
   H        2.79785       -14.24628         4.83603
   H        1.32630       -12.10541         1.42621
   H        3.60736       -11.82179         0.58498
   H        0.52673       -14.01322         4.60295
   H       -0.53395       -12.05973         2.50283
   H       -4.75761       -10.31735         1.53185
   H       -6.41868       -10.48593         3.34037
   H       -5.99777       -11.90753         5.30064
   H       -1.12849       -14.42933        10.23466
   H       -2.73453       -15.80771        11.43897
   H       -5.07808       -15.93328        10.70915
   H       -9.84755       -14.04985         5.40175
   H      -11.86194       -14.98906         6.59249
   H      -11.20228       -16.84157        10.58542
   H       -8.82675       -17.32670        12.47367
   H      -10.57829       -17.79036        12.76579
*
