# ORCA input file
# SCF done       -183.033581618741          0.000871201247
! CAM-B3LYP def2-SVP def2/J RIJCOSX Grid4 TightSCF
%maxcore 5000
%tddft
    Mode sTDDFT
    Ethresh 5.0
    maxcore 5000
end

%pal
  nprocs 6
  end
* xyz 0 1
   C       12.38951        -4.54819         0.98482
   S       10.75822        -5.00625         1.20828
   C       10.26880        -3.35450         1.45452
   C       11.35760        -2.50856         1.35894
   C       12.57466        -3.19479         1.08968
   C       13.84578        -2.60109         0.94035
   N       14.89410        -2.15904         0.81284
   C       11.23093        -1.03220         1.53060
   F       10.38103        -0.48743         0.63085
   F       10.71965        -0.70418         2.73886
   F       12.37994        -0.37199         1.41412
   C        8.91670        -2.98929         1.71813
   C        7.90422        -3.87371         1.82353
   N        6.62370        -3.49479         2.08324
   C        5.55332        -4.31700         2.21923
   S        5.71079        -6.02866         2.02224
   C        4.01080        -6.20192         2.34034
   N        3.52275        -7.51829         2.34387
   O        2.35366        -7.69659         2.60513
   O        4.34366        -8.38538         2.09020
   C        3.36730        -5.02250         2.57180
   C        4.23922        -3.90780         2.51394
   C        3.86984        -2.55198         2.75433
   C        2.60235        -2.10772         2.98262
   C        2.30556        -0.76331         3.25745
   C        1.03186        -0.29609         3.48175
   C        0.63850         1.02790         3.79103
   C       -0.70674         1.17955         3.96014
   C       -1.43569        -0.01580         3.78507
   S       -0.37493        -1.34148         3.41150
   C       -2.80645        -0.22751         3.86556
   C       -3.83102         0.68381         4.16756
   C       -5.06864         0.10488         4.15279
   C       -5.07297        -1.27463         3.83478
   S       -3.44747        -1.82894         3.55616
   C       -6.24346        -2.01278         3.77305
   C       -6.49637        -3.35184         3.47072
   C       -5.54025        -4.35243         3.12294
   C       -5.92823        -5.71123         2.82253
   N       -5.02485        -6.54772         2.28742
   C       -3.77484        -6.17459         2.18463
   C       -3.34986        -4.90304         2.67652
   N       -4.25454        -4.02682         3.07836
   C       -1.98306        -4.55237         2.68612
   N       -0.86266        -4.30152         2.67346
   C       -2.85043        -7.02095         1.51941
   N       -2.08445        -7.65129         0.94825
   C       -7.25087        -6.16412         2.99229
   C       -8.21468        -5.17418         3.27583
   C       -7.85004        -3.80170         3.50314
   N       -8.91144        -3.04513         3.75831
   S      -10.23739        -3.95950         3.71522
   N       -9.52812        -5.36668         3.37527
   C       -7.62137        -7.53523         2.85643
   S       -9.23067        -7.97563         2.40307
   C       -8.85943        -9.67286         2.46592
   C       -7.54419        -9.87225         2.82420
   C       -6.83848        -8.66343         3.07026
   C       -5.56258        -8.60708         3.66173
   N       -4.58294        -8.57046         4.25868
   C       -6.87655       -11.20792         2.90222
   F       -7.28325       -12.04471         1.92985
   F       -5.54825       -11.13571         2.78991
   F       -7.12264       -11.84597         4.06773
   C       -9.93167       -10.59889         2.18160
   C      -10.07546       -11.81897         2.68844
   H       13.13919        -5.28828         0.78721
   H        8.71556        -1.93468         1.84150
   H        8.06533        -4.93624         1.70821
   H        6.45585        -2.50128         2.19146
   H        2.31343        -4.97342         2.77878
   H        4.66535        -1.81650         2.77000
   H        1.77212        -2.79906         2.95657
   H        3.11784        -0.04906         3.30597
   H        1.35718         1.82329         3.88111
   H       -1.18851         2.11038         4.19991
   H       -3.64935         1.72100         4.38723
   H       -5.98436         0.63076         4.35940
   H       -7.14310        -1.45058         3.99873
   H      -10.69757       -10.19346         1.53262
   H       -9.37781       -12.25522         3.38023
   H      -10.92298       -12.42599         2.42270
*
