# ORCA input file
# SCF done       -182.373356734373          0.000499033493
! CAM-B3LYP def2-SVP def2/J RIJCOSX Grid4 TightSCF
%maxcore 5000
%tddft
    Mode sTDDFT
    Ethresh 5.0
    maxcore 5000
end

%pal
  nprocs 6
  end
* xyz 0 1
   C       -2.11394        -0.08481        -2.72764
   O       -1.50157        -1.26018        -2.58932
   C       -2.34397        -2.08524        -1.91000
   C       -3.50455        -1.41689        -1.60822
   C       -3.35581        -0.11246        -2.14400
   C       -4.31264         1.00227        -2.10342
   O       -4.10497         2.09843        -2.55937
   O       -5.45092         0.65107        -1.49147
   C       -6.44506         1.66141        -1.40814
   C       -1.93988        -3.42355        -1.61124
   S       -2.90065        -4.38758        -0.54540
   C       -1.80011        -5.72786        -0.68495
   C       -0.72906        -5.40308        -1.50460
   C       -0.82314        -4.11078        -2.05261
   C        0.14065        -3.60634        -3.07814
   N       -0.57240        -3.03942        -4.26210
   O        0.03388        -2.22445        -4.90825
   O       -1.66210        -3.48011        -4.52493
   C        0.98893        -4.76207        -3.62700
   C        1.57028        -5.56577        -2.47272
   C        0.45021        -6.29493        -1.71760
   N        1.06294        -6.72600        -0.41382
   O        0.71559        -6.16621         0.59434
   O        1.91318        -7.57212        -0.49231
   C       -2.01683        -6.98379        -0.07517
   C       -2.98121        -7.29054         0.82744
   C       -3.07232        -8.60794         1.34302
   N       -3.98056        -9.02321         2.28489
   C       -5.03552        -8.23191         2.86797
   C       -6.22135        -8.08076         1.91795
   C       -3.81515       -10.38592         2.61695
   O       -4.50131       -10.96635         3.42968
   C       -2.70461       -10.81297         1.79556
   C       -2.27072        -9.70553         1.02735
   C       -1.17449       -10.15486         0.20875
   O       -0.49960        -9.58021        -0.63286
   N       -1.00239       -11.50706         0.54175
   C        0.06437       -12.25363        -0.07904
   C        1.30662       -12.30897         0.80781
   C       -1.91363       -11.91632         1.49540
   C       -2.12350       -13.19377         2.08573
   C       -1.40107       -14.32955         1.97122
   C       -1.72647       -15.59220         2.58867
   C       -2.90284       -15.82718         3.30297
   C       -3.15986       -17.06989         3.85357
   N       -4.36402       -17.20342         4.63464
   O       -5.28602       -16.46401         4.36540
   O       -4.37494       -18.02442         5.52777
   C       -2.27250       -18.15238         3.70958
   C       -1.09166       -17.89893         2.99987
   C       -0.82570       -16.66285         2.46118
   C       -2.59318       -19.48063         4.17884
   C       -1.67788       -20.36384         4.61115
   C       -1.94553       -21.69390         5.06992
   O       -0.88685       -22.35697         5.58406
   C       -1.30497       -23.56148         6.00046
   C       -2.63478       -23.71269         5.77397
   C       -3.07376       -22.50565         5.16217
   C       -4.45039       -22.27056         4.71735
   O       -4.82214       -21.40705         3.95794
   O       -5.28517       -23.17688         5.24693
   C       -6.64989       -23.04032         4.88277
   H       -1.59727         0.69350        -3.25290
   H       -4.35259        -1.80167        -1.08200
   H       -7.28489         1.21830        -0.87950
   H       -6.74538         1.98077        -2.40816
   H       -6.06136         2.52746        -0.86496
   H        0.77998        -2.80591        -2.69051
   H        1.78814        -4.36205        -4.25207
   H        0.35802        -5.41087        -4.24007
   H        2.08559        -4.88570        -1.78878
   H        2.29461        -6.29330        -2.83871
   H        0.17302        -7.22196        -2.23216
   H       -1.34630        -7.77348        -0.38567
   H       -3.66972        -6.53326         1.17338
   H       -4.64126        -7.25368         3.15737
   H       -5.35233        -8.76680         3.76777
   H       -5.92134        -7.59040         0.99437
   H       -6.99988        -7.48969         2.39203
   H       -6.62765        -9.05937         1.67471
   H        0.30963       -11.71412        -0.99917
   H       -0.29266       -13.25109        -0.34547
   H        1.68869       -11.30273         0.96102
   H        2.07926       -12.90277         0.32667
   H        1.07892       -12.74191         1.77956
   H       -3.00189       -13.19087         2.71797
   H       -0.49203       -14.34708         1.39048
   H       -3.63554       -15.04822         3.44881
   H       -0.39535       -18.70920         2.84946
   H        0.09533       -16.51042         1.91676
   H       -3.63323       -19.77126         4.16943
   H       -0.63493       -20.08445         4.69679
   H       -0.57140       -24.21229         6.43364
   H       -3.24532       -24.56216         5.99654
   H       -7.18420       -23.83020         5.40376
   H       -6.76722       -23.14401         3.80197
   H       -7.02516       -22.05970         5.18234
*
