# ORCA input file
# SCF done       -187.755343265746          0.000848762648
! CAM-B3LYP def2-SVP def2/J RIJCOSX Grid4 TightSCF
%maxcore 5000
%tddft
    Mode sTDDFT
    Ethresh 5.0
    maxcore 5000
end

%pal
  nprocs 6
  end
* xyz 0 1
   C        0.82690        -0.64451        -1.43962
   C        1.09151        -1.00832        -0.15517
   C        0.67573         0.00120         0.78336
   C        0.85325         0.06044         2.16297
   C        0.38064         1.16459         2.85837
   C       -0.26056         2.22455         2.19645
   C       -0.40938         2.19542         0.82907
   C        0.06667         1.09299         0.13156
   S        0.03346         0.87270        -1.59322
   C        0.55822         1.23321         4.26022
   N        0.70550         1.29889         5.39498
   C        1.71975        -2.27497         0.18961
   C        1.29181        -3.08635         1.22232
   F        0.20711        -2.74493         1.93823
   C        1.91424        -4.30297         1.54854
   F        1.39372        -4.98772         2.57237
   C        3.00951        -4.82058         0.86374
   C        3.45627        -4.02350        -0.22956
   C        2.81261        -2.77684        -0.55827
   N        3.37701        -2.18273        -1.60828
   S        4.58747        -3.09235        -2.13565
   N        4.46185        -4.28490        -1.06180
   C        3.59078        -6.06590         1.26550
   C        4.63022        -6.66409         0.63281
   C        5.17442        -7.90265         1.05675
   N        6.19224        -8.54749         0.39249
   C        6.82140        -8.12523        -0.83536
   C        5.94096        -8.40121        -2.05164
   C        6.54447        -9.75886         1.01260
   O        7.39571       -10.51121         0.58530
   C        5.67828        -9.82994         2.17104
   C        4.84271        -8.68559         2.16162
   C        3.96129        -8.76915         3.30637
   O        3.08004        -8.04052         3.71258
   N        4.32525        -9.97332         3.93506
   C        3.67531       -10.41210         5.14575
   C        4.52434       -10.12411         6.38172
   C        5.34925       -10.60891         3.27685
   C        5.90566       -11.84499         3.70105
   C        6.98197       -12.40223         3.10282
   C        7.54573       -13.66781         3.48010
   C        8.93786       -13.90313         3.45048
   C        9.91165       -12.83988         3.13288
   O        9.71257       -11.67618         2.96457
   S       11.56274       -13.55295         3.10341
   C       10.98594       -15.15023         3.66735
   O       11.73430       -16.05708         3.88951
   C        9.51244       -15.12530         3.78884
   C        8.74973       -16.23075         4.23001
   C        7.35949       -16.01809         4.18722
   C        6.78555       -14.79783         3.83630
   C        5.31712       -15.00241         3.78801
   O        4.42672       -14.24482         3.55225
   O        5.08332       -16.32510         4.06984
   C        6.25334       -17.00008         4.31563
   O        6.26752       -18.17035         4.53998
   C        9.36721       -17.45108         4.67281
   C        8.88856       -18.21898         5.67160
   C        9.51430       -19.41144         6.14575
   C       10.67769       -20.01138         5.74844
   C       10.96701       -21.19953         6.46392
   C       12.05710       -22.06092         6.32737
   C       12.13830       -23.17813         7.14283
   C       11.14364       -23.45514         8.10001
   C       10.06442       -22.61532         8.24675
   C        9.97803       -21.49226         7.43248
   S        8.72485       -20.29880         7.43815
   C       13.23702       -24.06044         7.01816
   N       14.12580       -24.77749         6.92098
   H        1.03869        -1.21408        -2.32282
   H        1.35676        -0.73052         2.69618
   H       -0.62099         3.06462         2.77024
   H       -0.87888         3.01114         0.30233
   H        3.14482        -6.53884         2.13142
   H        5.06515        -6.18460        -0.23089
   H        7.74671        -8.70302        -0.91273
   H        7.07107        -7.06265        -0.77134
   H        5.72099        -9.46395        -2.11721
   H        6.45970        -8.09736        -2.95658
   H        5.00277        -7.85517        -1.98528
   H        3.44275       -11.47773         5.06717
   H        2.73933        -9.84900         5.20610
   H        5.48390       -10.63316         6.32623
   H        4.00106       -10.45898         7.27326
   H        4.70569        -9.05545         6.46577
   H        5.44903       -12.32364         4.55363
   H        7.48986       -11.86079         2.31419
   H       10.31264       -17.69796         4.21479
   H        7.98605       -17.93408         6.19287
   H       11.31877       -19.62099         4.97927
   H       12.82459       -21.85639         5.59622
   H       11.23999       -24.33530         8.71729
   H        9.29745       -22.81897         8.97723
*
