# ORCA input file
# SCF done       -177.109919611175          0.000919936296
! CAM-B3LYP def2-SVP def2/J RIJCOSX Grid4 TightSCF
%maxcore 5000
%tddft
    Mode sTDDFT
    Ethresh 5.0
    maxcore 5000
end

%pal
  nprocs 6
  end
* xyz 0 1
   C       -0.11555         1.18942         3.45069
   C        0.90202         0.35541         3.08963
   C        0.94787        -0.16552         1.69658
   O        0.48773         0.43964         0.77021
   O        1.46885        -1.39295         1.53471
   C        1.74806         0.02835         4.20463
   C        1.29450         0.62242         5.35663
   S       -0.09602         1.58630         5.11459
   C        2.97124        -0.73679         4.17631
   C        3.89258        -0.83644         3.16493
   C        4.96361        -1.68032         3.59393
   C        4.63522        -2.09514         4.96997
   C        3.45857        -1.50767         5.31151
   C        5.42713        -2.85771         5.83782
   N        6.05861        -3.43610         6.60272
   C        6.09038        -2.03557         2.89144
   C        7.06931        -2.99442         3.27031
   C        8.07506        -3.02048         2.32205
   C        7.73557        -2.04817         1.29154
   C        6.54309        -1.47770         1.60584
   C        5.90824        -0.48229         0.85265
   N        5.42309         0.34545         0.22251
   C        9.19617        -3.88502         2.41325
   N       10.41316        -3.76008         1.79031
   C       10.88706        -2.68218         0.95253
   C       11.00833        -1.36783         1.71624
   C       11.30092        -4.78179         2.17676
   O       12.44930        -4.85556         1.78511
   C       10.53321        -5.61569         3.07267
   C        9.25577        -5.03915         3.20601
   C        8.46036        -5.90672         4.05970
   O        7.30595        -5.86138         4.41740
   N        9.34768        -6.94176         4.41619
   C        8.93375        -8.00632         5.30103
   C        9.33328        -7.71971         6.74592
   C       10.58260        -6.78433         3.85013
   C       11.65857        -7.67362         4.07079
   C       12.86901        -7.51980         3.46453
   C       13.98698        -8.38781         3.55916
   C       14.03496        -9.77848         3.62263
   N       12.99876       -10.73133         3.68514
   O       13.26123       -11.84953         3.27982
   O       11.91040       -10.41688         4.14130
   C       15.38924       -10.22002         3.40787
   C       16.19303        -9.13737         3.30372
   C       15.39756        -7.94445         3.44500
   C       15.88760        -6.67050         3.61617
   C       15.17810        -5.41644         3.61614
   C       16.07435        -4.40652         3.57005
   C       17.41280        -4.95737         3.60531
   N       18.52952        -4.11571         3.78555
   O       18.29671        -2.92932         3.94246
   O       19.64890        -4.59778         3.81581
   C       17.33372        -6.33300         3.68627
   C       18.38116        -7.26588         3.95446
   C       19.60297        -7.25564         3.37443
   C       20.65393        -8.14141         3.72876
   C       21.89992        -8.24449         3.12335
   C       22.26764        -7.49228         1.89824
   O       21.47111        -7.12684         1.07832
   O       23.58041        -7.25551         1.73844
   C       22.73974        -9.18100         3.76988
   C       22.14214        -9.77739         4.83645
   S       20.54895        -9.20957         5.10030
   H       -0.88503         1.56579         2.80628
   H        1.83039        -1.75994         2.35413
   H        1.74681         0.57967         6.32770
   H        3.84578        -0.35953         2.20508
   H        2.94771        -1.60424         6.25109
   H        7.01547        -3.60942         4.14617
   H        8.30196        -1.83838         0.40497
   H       10.23845        -2.57609         0.07980
   H       11.87549        -2.99847         0.60561
   H       10.04298        -1.03918         2.09510
   H       11.40216        -0.59923         1.05743
   H       11.68838        -1.48559         2.55650
   H        9.36055        -8.95073         4.95563
   H        7.84410        -8.05693         5.22802
   H       10.41269        -7.62432         6.84078
   H        8.99797        -8.53207         7.38386
   H        8.86877        -6.79682         7.08490
   H       11.49647        -8.48560         4.75998
   H       13.00700        -6.66715         2.81327
   H       15.66359       -11.25548         3.33951
   H       17.24496        -9.15212         3.10415
   H       14.11719        -5.29070         3.60283
   H       15.87571        -3.35257         3.53252
   H       18.15720        -8.02191         4.69972
   H       19.82388        -6.58137         2.56012
   H       24.10883        -7.53781         2.49630
   H       23.73229        -9.44109         3.44257
   H       22.55137       -10.52602         5.48552
*
