# ORCA input file
# SCF done       -168.236951390980          0.000694183483
! CAM-B3LYP def2-SVP def2/J RIJCOSX Grid4 TightSCF
%maxcore 5000
%tddft
    Mode sTDDFT
    Ethresh 5.0
    maxcore 5000
end

%pal
  nprocs 6
  end
* xyz 0 1
   C        1.91016        -2.16993         1.54732
   C        1.38682        -3.45921         1.67148
   N        0.95970        -4.51869         1.77212
   C        1.27712        -0.97852         1.83772
   F        0.03039        -0.90196         2.29411
   C        2.08497         0.14552         1.60179
   F        1.68368         1.40087         1.81136
   C        3.34447        -0.17391         1.12833
   S        3.52694        -1.89581         0.97558
   C        4.35731         0.71264         0.80497
   C        5.24880         1.48575         0.51842
   C        6.21931         2.41971         0.20270
   S        5.89803         4.12252         0.40001
   C        7.48977         4.53466        -0.17681
   C        8.20790         3.37841        -0.49621
   C        7.48876         2.19276        -0.28030
   C        9.52756         3.38639        -0.98547
   N       10.60151         3.34495        -1.38292
   C        7.93458         5.86943        -0.29078
   C        7.16822         6.93957         0.05973
   C        7.59811         8.27794        -0.05987
   N        6.83011         9.36341         0.29293
   C        5.47280         9.33939         0.78240
   C        4.46583         9.11360        -0.34266
   C        7.50085        10.57744         0.07153
   O        7.01382        11.66429         0.31391
   C        8.79091        10.18441        -0.45432
   C        8.81987         8.77574        -0.52203
   C       10.10951         8.37702        -1.04888
   O       10.58286         7.28519        -1.28618
   N       10.78139         9.58854        -1.27193
   C       12.13890         9.60982        -1.76467
   C       13.14809         9.83853        -0.64277
   C       10.01831        10.67809        -0.92099
   C       10.44835        12.01341        -1.04304
   C        9.66442        13.07277        -0.68091
   C       10.05761        14.42525        -0.77072
   C       11.25669        14.96933        -1.19832
   C       11.19771        16.38197        -1.08632
   C        9.85389        16.69733        -0.56102
   C        9.18977        15.52797        -0.37845
   C        9.33344        17.96874        -0.29511
   N        8.87642        18.99819        -0.06967
   C       12.19388        17.29011        -1.38122
   C       12.15949        18.70172        -1.22673
   C       13.37548        19.23511        -1.60406
   C       14.22781        18.13579        -2.03105
   C       13.53639        16.97204        -1.90270
   C       14.03409        15.70443        -2.21945
   N       14.46902        14.67477        -2.48789
   C       13.71795        20.61073        -1.55540
   C       14.92556        21.12684        -1.89952
   C       15.20499        22.48054        -1.80228
   C       15.43839        23.66908        -1.69665
   C       15.69366        25.02176        -1.56429
   C       14.81897        25.99437        -1.11145
   C       15.37959        27.28052        -1.08321
   C       16.69088        27.30966        -1.51437
   S       17.23632        25.72269        -1.96132
   C       17.52835        28.42327        -1.60480
   N       18.21997        29.33524        -1.67853
   F       14.71668        28.36178        -0.68147
   F       13.56614        25.72748        -0.73846
   H        7.88075         1.20941        -0.46997
   H        8.93438         6.01779        -0.68160
   H        6.17541         6.76357         0.45340
   H        5.29894        10.31844         1.23753
   H        5.37538         8.57072         1.55410
   H        4.54473         9.91187        -1.07645
   H        3.45769         9.11245         0.06197
   H        4.64333         8.16451        -0.84371
   H       12.23501        10.37734        -2.53719
   H       12.31059         8.62945        -2.21758
   H       12.96944        10.78730        -0.14159
   H       14.15392         9.84526        -1.05250
   H       13.07637         9.03923         0.09081
   H       11.43666        12.19295        -1.43995
   H        8.67349        12.88221        -0.28976
   H       12.11138        14.42812        -1.55158
   H        8.18888        15.40609        -0.00767
   H       11.31888        19.25908        -0.86257
   H       15.23640        18.22766        -2.38915
   H       12.94582        21.28283        -1.20314
   H       15.72834        20.49696        -2.25899
*
