# ORCA input file
# SCF done       -218.745819695957          0.000670559218
! CAM-B3LYP def2-SVP def2/J RIJCOSX Grid4 TightSCF
%maxcore 5000
%tddft
    Mode sTDDFT
    Ethresh 5.0
    maxcore 5000
end

%pal
  nprocs 6
  end
* xyz 0 1
   C        1.51857         0.78855        -0.04287
   C        2.05644         0.65622         1.20909
   C        2.92809        -0.38798         1.58727
   N        3.62957        -1.21397         1.96507
   C        1.82666         1.52043         2.30105
   N        1.68772         2.16866         3.23868
   C        1.78334        -0.08317        -1.17926
   C        1.08147         0.41556        -2.31377
   C        1.14617        -0.19755        -3.53183
   C        1.93392        -1.36090        -3.67511
   C        2.63659        -1.86979        -2.54460
   C        2.54892        -1.21358        -1.29591
   C        3.41655        -3.03418        -2.69764
   C        3.50081        -3.66611        -3.90842
   C        2.80978        -3.16341        -5.02109
   C        2.04351        -2.03514        -4.90708
   C        0.33972         1.62337        -1.93788
   O       -0.42931         2.26019        -2.63165
   C        0.63583         1.85216        -0.49991
   C        0.07086         2.81242         0.28180
   C       -0.67339         3.95796        -0.11376
   S       -1.90314         4.50452         0.99346
   C       -2.28937         5.86250        -0.00747
   C       -1.48381         5.88499        -1.14257
   C       -0.56165         4.82822        -1.19137
   C        0.50865         4.81586        -2.23588
   N        1.78134         4.30706        -1.67559
   O        2.37712         3.47423        -2.31562
   O        2.15169         4.77602        -0.62766
   C        0.75577         6.24707        -2.72443
   C       -0.53767         6.81037        -3.29659
   C       -1.62969         6.90285        -2.22511
   N       -2.97537         6.77161        -2.90518
   O       -3.86614         6.22975        -2.30691
   O       -3.05302         7.24088        -4.00969
   C       -3.26554         6.82790         0.32204
   C       -4.17830         6.75239         1.32313
   C       -5.11934         7.79719         1.49260
   N       -6.11189         7.81339         2.43826
   C       -6.32733         6.83117         3.47260
   C       -5.32777         6.98313         4.61654
   C       -6.92556         8.96314         2.33478
   O       -7.86408         9.18989         3.06537
   C       -6.36146         9.68938         1.21711
   C       -5.25362         8.96111         0.72842
   C       -4.70749         9.70305        -0.38072
   O       -3.75205         9.48557        -1.11243
   N       -5.51511        10.84344        -0.48961
   C       -5.29699        11.76314        -1.58068
   C       -6.34647        11.60735        -2.67789
   C       -6.52117        10.84667         0.45821
   C       -7.54889        11.78949         0.70308
   C       -7.75861        13.01427         0.15662
   C       -8.84520        13.85569         0.50645
   S      -10.11080        13.36938         1.60267
   C      -10.92193        14.89473         1.42656
   C      -10.21544        15.73030         0.55242
   C       -9.05793        15.13893         0.03601
   C      -10.64059        17.02893         0.22164
   N      -10.97601        18.08953        -0.05612
   C      -12.13254        15.20809         2.08151
   C      -12.83028        14.33773         2.86129
   C      -14.04376        14.70320         3.48382
   C      -14.82363        13.85881         4.22319
   C      -16.07392        14.18321         4.88497
   C      -16.65097        15.42239         4.99542
   C      -17.86868        15.67134         5.66311
   N      -18.85239        15.94496         6.18816
   C      -16.12173        16.62657         4.48607
   N      -15.75918        17.65002         4.11154
   C      -16.61023        12.95037         5.45205
   C      -15.69423        11.89176         5.19132
   C      -14.54369        12.41225         4.43422
   O      -13.58055        11.77931         4.05564
   C      -15.92934        10.61310         5.60748
   C      -17.11780        10.32665         6.31534
   C      -18.04214        11.37881         6.57727
   C      -17.76963        12.69385         6.13560
   C      -19.22709        11.08189         7.28109
   C      -19.48805         9.80781         7.70634
   C      -18.57703         8.77264         7.44801
   C      -17.41704         9.02655         6.76768
   H        0.60617         0.20274        -4.37688
   H        3.09165        -1.62538        -0.46011
   H        3.94766        -3.41662        -1.83841
   H        4.10108        -4.55710        -4.01566
   H        2.88766        -3.67471        -5.96889
   H        1.50937        -1.64372        -5.76048
   H        0.14600         2.69571         1.35604
   H        0.24008         4.15548        -3.07071
   H        1.52701         6.24476        -3.49619
   H        1.10225         6.85558        -1.88556
   H       -0.87910         6.15855        -4.10412
   H       -0.35760         7.79469        -3.72719
   H       -1.66366         7.91053        -1.79025
   H       -3.28064         7.70991        -0.30174
   H       -4.21993         5.88712         1.96870
   H       -6.27401         5.82809         3.04018
   H       -7.34116         7.00268         3.84487
   H       -4.30680         6.85677         4.26316
   H       -5.52794         6.23743         5.38071
   H       -5.42068         7.97044         5.06217
   H       -4.31179        11.50963        -1.98418
   H       -5.25694        12.78760        -1.20178
   H       -6.30179        10.60180        -3.08882
   H       -6.15093        12.31659        -3.47748
   H       -7.34911        11.77801        -2.29273
   H       -8.23997        11.45255         1.46798
   H       -7.08835        13.43208        -0.57868
   H       -8.39744        15.63375        -0.65420
   H      -12.51171        16.21139         1.92145
   H      -12.46204        13.33175         3.00850
   H      -14.36641        15.72698         3.34220
   H      -15.21660         9.82956         5.39694
   H      -18.49163        13.46593         6.34830
   H      -19.92508        11.88237         7.47799
   H      -20.39851         9.59042         8.24447
   H      -18.79925         7.77307         7.79066
   H      -16.71175         8.23369         6.56567
*
