# ORCA input file
# SCF done       -217.583146429124          0.000835223027
! CAM-B3LYP def2-SVP def2/J RIJCOSX Grid4 TightSCF
%maxcore 5000
%tddft
    Mode sTDDFT
    Ethresh 5.0
    maxcore 5000
end

%pal
  nprocs 6
  end
* xyz 0 1
   C       -1.89490         0.20541        -1.07136
   C       -2.90906         0.93237        -1.63536
   C       -4.27710         0.64947        -1.47147
   N       -5.40280         0.49282        -1.31032
   C       -2.62154         2.03083        -2.46796
   N       -2.38473         2.90643        -3.17118
   C       -1.98349        -1.09501        -0.43277
   C       -0.68458        -1.68812        -0.43678
   C       -0.46360        -2.92047         0.10470
   C       -1.54503        -3.62026         0.68665
   C       -2.84329        -3.03022         0.69540
   C       -3.04714        -1.75597         0.12176
   C       -3.90818        -3.73892         1.28874
   C       -3.70450        -4.97309         1.84347
   C       -2.42761        -5.55392         1.83216
   C       -1.37138        -4.89214         1.26557
   C        0.28278        -0.75904        -1.04997
   O        1.44015        -0.94136        -1.32536
   C       -0.48552         0.52187        -1.20108
   C        0.17053         1.70355        -1.18780
   C       -0.31073         3.01255        -0.86524
   S        0.55446         4.36248        -1.52119
   C       -0.46738         5.46690        -0.68891
   C       -0.27488         6.93960        -0.80493
   F       -0.20493         7.35716        -2.07705
   F       -1.28382         7.61200        -0.23133
   F        0.85279         7.36359        -0.20833
   C       -1.41546         4.83756         0.06329
   C       -1.34025         3.42897        -0.02506
   C       -2.20599         2.56598         0.75292
   C       -1.84062         1.50091         1.54504
   N       -0.53981         1.02302         1.81390
   O        0.40361         1.76730         1.62317
   O       -0.44692        -0.12390         2.21292
   C       -3.01757         0.88742         2.12172
   C       -4.09286         1.61343         1.75388
   C       -3.66086         2.70390         0.89948
   C       -4.49111         3.62643         0.30219
   C       -4.26847         4.32839        -0.92467
   C       -5.45904         4.81123        -1.37783
   C       -6.47528         4.54691        -0.40541
   N       -7.80167         5.00001        -0.56173
   O       -8.60748         4.77675         0.32751
   O       -8.06695         5.58933        -1.59151
   C       -5.90805         3.88372         0.68297
   C       -6.51569         3.70797         1.93558
   C       -5.86480         3.50734         3.12643
   C       -6.51760         3.35036         4.36262
   C       -5.88832         3.02865         5.55770
   C       -6.85306         2.95619         6.59235
   C       -8.14996         3.27706         5.96250
   C       -7.94404         3.48086         4.63633
   C       -9.39598         3.31352         6.60265
   N      -10.42929         3.33887         7.10165
   C       -6.63909         2.63551         7.91822
   C       -7.55412         2.72000         8.99755
   C       -6.92861         2.29483        10.15695
   C       -5.56853         1.89517         9.80738
   C       -5.37381         2.11519         8.48433
   C       -4.19777         1.83760         7.77835
   N       -3.22443         1.59584         7.21855
   C       -7.43165         2.23935        11.47671
   C       -8.62206         2.77155        11.87943
   C       -9.04450         2.69254        13.22476
   C      -10.15434         3.30972        13.72959
   C      -10.63938         3.25199        15.09648
   C      -10.16624         2.44593        16.10082
   C      -10.69144         2.42417        17.41074
   N      -11.06675         2.35742        18.49333
   C       -9.11296         1.51548        15.97992
   N       -8.26994         0.73561        15.95963
   C      -11.75517         4.18315        15.21270
   C      -11.99971         4.76607        13.93572
   C      -11.03450         4.23901        12.95978
   O      -10.95719         4.52157        11.78446
   C      -12.99151         5.68383        13.73810
   C      -13.79715         6.07308        14.83093
   C      -13.55642         5.49869        16.11322
   C      -12.52497         4.54766        16.28627
   C      -14.36214         5.89884        17.19861
   C      -15.35769         6.82219        17.02771
   C      -15.59386         7.38669        15.76513
   C      -14.83075         7.01975        14.68973
   H        0.52484        -3.35387         0.09797
   H       -4.03252        -1.31546         0.15104
   H       -4.88987        -3.28812         1.29269
   H       -4.52648        -5.50845         2.29450
   H       -2.28433        -6.52761         2.27586
   H       -0.38621        -5.33415         1.25642
   H        1.23843         1.64246        -1.37255
   H       -2.12670         5.35875         0.67871
   H       -2.98124         0.01031         2.73833
   H       -5.11888         1.39092         1.96809
   H       -3.34738         4.35209        -1.46922
   H       -5.64073         5.31801        -2.30695
   H       -7.59052         3.83416         1.94614
   H       -4.78351         3.48063         3.15615
   H       -4.83570         2.86391         5.67994
   H       -8.69834         3.71906         3.91028
   H       -8.56314         3.07237         8.91397
   H       -4.85119         1.50212        10.50415
   H       -6.79766         1.76230        12.21578
   H       -9.25601         3.28889        11.17493
   H       -8.42079         2.11063        13.89213
   H      -13.15584         6.10902        12.75918
   H      -12.36718         4.13561        17.27019
   H      -14.17708         5.46125        18.16857
   H      -15.96891         7.12288        17.86525
   H      -16.38318         8.11404        15.64898
   H      -15.00771         7.45091        13.71544
*
