# ORCA input file
# SCF done       -223.158602708285          0.000878332844
! CAM-B3LYP def2-SVP def2/J RIJCOSX Grid4 TightSCF
%maxcore 5000
%tddft
    Mode sTDDFT
    Ethresh 5.0
    maxcore 5000
end

%pal
  nprocs 6
  end
* xyz 0 1
   C        4.41170         1.59590         4.00932
   N        4.61318         2.49072         3.01785
   C        5.80911         2.62802         2.22292
   C        5.89415         1.54526         1.15089
   C        3.45280         3.27425         2.78737
   O        3.39625         4.14547         1.94551
   C        2.49883         2.77802         3.75361
   C        3.13196         1.73987         4.49088
   C        2.18439         1.24078         5.47227
   O        2.25683         0.37085         6.30594
   N        1.03070         2.02454         5.25656
   C       -0.14340         1.85277         6.07924
   C       -0.22188         2.90323         7.18417
   C        1.20027         2.94232         4.24824
   C        0.20199         3.85118         3.83577
   C        0.38105         4.72505         2.80084
   C       -0.58558         5.65141         2.35775
   C       -0.44018         6.49566         1.26737
   C       -1.59710         7.30296         1.14165
   C       -2.50420         6.89392         2.23443
   C       -1.89804         5.90694         2.94079
   C       -3.80461         7.36034         2.46805
   N       -4.88787         7.67988         2.67400
   C       -1.84827         8.28484         0.20463
   C       -2.92963         9.20291         0.18824
   C       -2.83625         9.99345        -0.94264
   C       -1.65421         9.56319        -1.68901
   C       -1.03444         8.57805        -0.99181
   C        0.14799         7.93894        -1.38269
   N        1.11432         7.42971        -1.73684
   C       -3.66149        11.06317        -1.36979
   C       -4.25162        12.09429        -0.65013
   N       -4.21614        12.34021         0.73963
   O       -3.65925        11.53581         1.46534
   O       -4.74119        13.36604         1.12986
   C       -4.81039        13.04678        -1.56757
   C       -4.57417        12.63121        -2.84533
   C       -3.89931        11.37740        -2.79716
   C       -3.70622        10.48232        -3.83545
   C       -3.69696         9.06560        -3.71665
   C       -3.69559         8.52226        -4.97285
   C       -3.66209         9.56245        -5.94279
   N       -3.63839         9.22905        -7.30981
   O       -3.89469        10.08246        -8.14755
   O       -3.38163         8.07181        -7.58993
   C       -3.62923        10.80948        -5.27770
   C       -3.30945        12.11104        -5.67332
   C       -3.20603        12.59642        -6.96386
   C       -2.87775        13.89490        -7.36011
   C       -2.78582        15.13334        -6.69479
   N       -2.74923        15.45682        -5.32568
   O       -2.47925        14.58914        -4.50724
   O       -2.96007        16.61764        -5.02724
   C       -2.78315        16.18012        -7.66251
   C       -2.86241        15.64634        -8.91773
   C       -2.86296        14.22773        -8.80667
   C       -2.70100        13.33158        -9.84683
   C       -1.97449        12.10071        -9.80358
   C       -1.73755        11.68346       -11.07976
   C       -2.36746        12.59435       -11.98761
   N       -2.35932        12.41025       -13.38609
   O       -3.00318        13.18150       -14.07758
   O       -1.68880        11.49411       -13.82180
   C       -2.99866        13.60385       -11.26588
   C       -3.88174        14.58513       -11.76562
   C       -4.93348        15.11028       -11.06528
   C       -5.76747        16.08377       -11.64560
   C       -6.95160        16.63224       -11.23416
   C       -7.60957        17.55656       -12.22150
   O       -7.10560        17.98035       -13.23344
   C       -8.95114        17.78826       -11.69072
   C      -10.07812        18.45295       -12.07169
   S      -11.33982        18.24084       -10.88102
   C      -10.32458        17.26381        -9.88614
   C       -9.08964        17.10832       -10.43783
   C       -7.83489        16.45116       -10.09816
   C       -7.63086        15.86545        -8.87268
   C       -8.67008        15.78407        -7.91704
   N       -9.48567        15.68179        -7.11680
   C       -6.45552        15.33294        -8.32233
   N       -5.55574        14.90337        -7.74954
  Cl      -10.32589        19.37408       -13.46978
   H        5.18700         0.91937         4.31889
   H        6.68098         2.58436         2.88119
   H        5.76000         3.61375         1.75312
   H        5.91635         0.55600         1.60271
   H        6.79761         1.68132         0.56382
   H        5.03588         1.60733         0.48654
   H       -0.05523         0.85894         6.52682
   H       -1.03745         1.87589         5.45019
   H        0.64908         2.82681         7.83015
   H       -1.11284         2.73921         7.78361
   H       -0.25757         3.90878         6.77056
   H       -0.73887         3.83296         4.36559
   H        1.32128         4.72370         2.26484
   H        0.42438         6.54697         0.63461
   H       -2.31604         5.39932         3.78968
   H       -3.69639         9.25899         0.93400
   H       -1.30823        10.01648        -2.59895
   H       -5.32442        13.93600        -1.25451
   H       -4.94030        13.10418        -3.73484
   H       -3.80667         8.52142        -2.79901
   H       -3.73189         7.47941        -5.22755
   H       -3.08504        12.79013        -4.86261
   H       -3.44983        11.92320        -7.77346
   H       -2.71902        17.22059        -7.40287
   H       -2.81771        16.19165        -9.84016
   H       -1.56753        11.65839        -8.91620
   H       -1.18000        10.82125       -11.39331
   H       -3.76329        14.85122       -12.80984
   H       -5.14870        14.73409       -10.07911
   H       -5.44916        16.45470       -12.61763
   H      -10.72029        16.87296        -8.97017
*
