# ORCA input file
# SCF done       -208.453243678378          0.000490439221
! CAM-B3LYP def2-SVP def2/J RIJCOSX Grid4 TightSCF
%maxcore 5000
%tddft
    Mode sTDDFT
    Ethresh 5.0
    maxcore 5000
end

%pal
  nprocs 6
  end
* xyz 0 1
   C        1.65896         3.35442         1.84594
   C        0.76696         3.02907         2.99740
   O        0.74338         1.98090         3.60118
   C       -0.04636         4.23981         3.21602
   C        0.24880         5.17949         2.22941
   C        1.20902         4.60668         1.28861
   C        1.41013         5.05843         0.00474
   C        1.93165         4.25074        -1.02595
   N        2.25885         3.60063        -1.91466
   C        1.04039         6.33089        -0.46397
   N        0.84374         7.38183        -0.88787
   C       -0.43036         6.40509         2.19297
   C       -1.34807         6.68509         3.17068
   C       -1.67294         5.75091         4.17884
   C       -1.02475         4.48147         4.19854
   C       -1.40180         3.52453         5.16227
   C       -2.38310         3.81391         6.06929
   C       -3.00952         5.07009         6.06770
   C       -2.65902         6.02066         5.14874
   C        2.69107         2.50763         1.56796
   C        3.83264         2.65210         0.75106
   C        4.56963         1.59408         0.23175
   C        5.58670         2.01654        -0.61496
   C        5.66348         3.42804        -0.70747
   S        4.50763         4.21209         0.26966
   C        6.63333         3.76621        -1.66212
   C        7.18673         2.57632        -2.19381
   C        6.55999         1.44165        -1.52150
   C        6.82386         0.11835        -1.72980
   C        7.79295        -0.31283        -2.65862
   N        8.58117        -0.66313        -3.41463
   C        6.14984        -0.90334        -1.02900
   N        5.61050        -1.74018        -0.46009
   C        8.06343         2.80872        -3.23672
   C        8.16953         4.17137        -3.55674
   S        7.20878         5.16361        -2.45899
   C        8.82298         4.70172        -4.67518
   C        8.69587         5.99352        -5.14436
   C        9.10961         6.52191        -6.39159
   C        8.62776         7.77438        -6.66491
   C        7.83081         8.30774        -5.63583
   S        7.78168         7.20181        -4.28116
   C        7.01613         9.42795        -5.52694
   C        6.65403        10.46774        -6.40331
   C        5.65583        11.27002        -5.91740
   C        5.17693        10.90539        -4.63544
   S        6.10185         9.54981        -4.04362
   C        4.10849        11.41900        -3.92835
   C        3.63331        10.92811        -2.70621
   C        2.48248        11.34440        -2.01822
   C        2.26923        10.62457        -0.85627
   C        3.26878         9.64900        -0.62961
   S        4.44917         9.61743        -1.85333
   C        2.98761         8.96745         0.56124
   C        1.80091         9.50086         1.11696
   C        1.29876        10.53266         0.22997
   C        0.13251        11.22703         0.37121
   C       -0.74409        10.96003         1.44306
   N       -1.45432        10.70941         2.30836
   C       -0.27206        12.21439        -0.54971
   N       -0.59395        13.02083        -1.29878
   C        1.46243         8.90450         2.32185
   C        2.36333         7.91181         2.69419
   S        3.64472         7.71018         1.49711
   C        2.34872         7.03015         3.78810
   C        1.63229         7.06261         4.94847
   C        1.51664         5.80129         5.72982
   O        2.13058         4.77811         5.50740
   C        0.48987         6.06310         6.74987
   C        0.06528         7.38784         6.64745
   C        0.86418         8.07324         5.63258
   C        1.04184         9.43216         5.56328
   C        2.04608        10.05242         4.79550
   N        2.87439        10.59787         4.21625
   C        0.32464        10.37055         6.33409
   N       -0.22733        11.18510         6.92505
   C       -0.94687         7.87711         7.48140
   C       -1.49689         7.03509         8.41288
   C       -1.06887         5.69851         8.56121
   C       -0.04768         5.18609         7.70977
   C        0.37692         3.85013         7.85851
   C       -0.19014         3.05242         8.81321
   C       -1.19945         3.55062         9.65334
   C       -1.62967         4.84309         9.53147
   H       -0.23728         7.11961         1.40974
   H       -1.86541         7.63431         3.16313
   H       -0.90471         2.56779         5.15980
   H       -2.67970         3.07733         6.80074
   H       -3.77672         5.27918         6.79822
   H       -3.14360         6.98623         5.14125
   H        2.63087         1.55689         2.09274
   H        4.31708         0.56768         0.42951
   H        8.58062         2.04849        -3.79398
   H        9.39323         4.00483        -5.27488
   H        9.71099         5.94566        -7.07252
   H        8.80493         8.30313        -7.58459
   H        7.10896        10.58765        -7.37051
   H        5.23233        12.09788        -6.45866
   H        3.56168        12.24225        -4.36810
   H        1.84889        12.13210        -2.38502
   H        0.58097         9.13398         2.89147
   H        2.95650         6.13587         3.67356
   H       -1.29695         8.89225         7.38940
   H       -2.28174         7.39623         9.06182
   H        1.14919         3.47795         7.20436
   H        0.13477         2.02918         8.92733
   H       -1.63415         2.90241        10.40005
   H       -2.40368         5.22925        10.17912
*
