# ORCA input file
# SCF done       -187.101742321924          0.000354927220
! CAM-B3LYP def2-SVP def2/J RIJCOSX Grid4 TightSCF
%maxcore 5000
%tddft
    Mode sTDDFT
    Ethresh 5.0
    maxcore 5000
end

%pal
  nprocs 6
  end
* xyz 0 1
   C       -2.26036        -3.63690         2.63857
   S       -3.44178        -2.56404         3.37189
   C       -2.60523        -2.62834         4.95027
   O       -2.95823        -2.05031         5.93420
   N       -1.50990        -3.44233         4.83495
   C       -1.25982        -4.03259         3.61441
   O       -0.31566        -4.77736         3.42345
   C       -0.64903        -3.66482         5.97706
   C       -2.33165        -3.98666         1.32470
   C       -1.48698        -4.80857         0.55226
   C       -1.69635        -5.01753        -0.81270
   C       -0.73960        -5.84561        -1.37351
   C        0.21158        -6.28463        -0.42424
   S       -0.06978        -5.67018         1.14046
   C        1.15318        -7.10397        -1.09544
   C        0.80067        -7.18375        -2.45506
   C       -0.39305        -6.38652        -2.67842
   C       -1.01420        -6.16116        -3.87195
   C       -0.52026        -6.70916        -5.07460
   N       -0.10025        -7.15527        -6.04401
   C       -2.17260        -5.36282        -3.97523
   N       -3.11980        -4.72174        -4.05202
   C        1.68168        -7.96192        -3.20289
   C        2.72034        -8.45628        -2.43328
   S        2.56838        -7.99428        -0.74345
   C        3.80567        -9.27513        -2.85763
   C        4.45709       -10.21071        -2.10840
   C        5.36064       -10.93381        -2.96877
   C        6.21610       -11.95692        -2.53829
   N        6.91049       -12.79783        -2.18047
   C        5.24210       -10.46201        -4.25377
   C        4.32576        -9.36435        -4.24379
   C        4.13520        -8.44263        -5.24590
   C        4.40500        -8.61302        -6.69575
   C        4.18961        -7.39957        -7.29345
   C        3.81213        -6.44587        -6.28373
   C        3.75303        -7.07553        -5.06488
   C        3.54858        -5.08901        -6.51555
   N        3.32963        -3.97689        -6.69558
   C        4.69355        -9.84837        -7.33483
   C        5.13883        -9.95992        -8.61290
   C        5.45292       -11.17941        -9.25466
   C        5.94709       -11.31817       -10.54525
   C        6.17854       -12.64738       -10.87986
   C        5.85956       -13.54138        -9.83745
   S        5.27417       -12.73599        -8.45021
   C        6.13262       -14.86275       -10.26043
   C        6.63024       -14.80070       -11.58532
   C        6.67226       -13.41222       -12.01408
   C        7.08483       -12.92497       -13.21877
   C        7.54465       -13.76480       -14.25571
   N        7.91758       -14.43867       -15.10453
   C        7.07810       -11.54421       -13.50930
   N        7.07226       -10.42191       -13.74387
   C        6.93453       -16.05077       -12.08771
   C        6.67360       -17.07629       -11.17096
   S        6.03477       -16.45238        -9.65119
   C        6.92038       -18.42315       -11.48791
   C        6.71751       -19.55850       -10.75033
   C        7.00434       -20.91902       -11.17110
   C        7.58800       -21.32285       -12.34199
   C        8.03391       -20.47518       -13.37887
   N        8.42635       -19.85769       -14.26392
   C        7.84059       -22.67078       -12.67762
   N        8.07426       -23.74269       -13.01481
   C        6.56971       -21.80711       -10.09308
   C        6.06233       -21.02720        -9.03725
   C        6.13956       -19.60760        -9.39887
   O        5.78834       -18.65903        -8.71673
   C        5.58385       -21.60944        -7.87905
   C        5.61149       -22.99123        -7.77834
   C        6.10583       -23.78274        -8.81299
   C        6.58857       -23.18555        -9.97826
   C        6.10200       -25.27298        -8.69660
   H       -1.22629        -4.08600         6.79985
   H       -0.20904        -2.72129         6.30012
   H        0.13067        -4.35810         5.66654
   H       -3.16080        -3.56392         0.76893
   H       -2.51491        -4.56815        -1.34591
   H        1.57098        -8.18156        -4.24863
   H        4.30802       -10.42005        -1.06561
   H        5.84883       -10.76818        -5.08329
   H        4.24857        -7.16856        -8.33963
   H        3.57476        -6.59418        -4.12357
   H        4.54066       -10.75390        -6.76381
   H        5.30833        -9.07111        -9.20438
   H        6.12355       -10.47759       -11.19148
   H        7.32976       -16.24703       -13.06885
   H        7.33018       -18.54987       -12.48276
   H        5.20185       -20.99257        -7.08030
   H        5.24321       -23.46798        -6.88188
   H        6.96743       -23.81092       -10.77031
   H        6.12398       -25.58530        -7.65570
   H        6.95243       -25.70439        -9.21888
   H        5.19494       -25.67331        -9.15085
*
