# ORCA input file
# SCF done       -208.621782319436          0.000245244716
! CAM-B3LYP def2-SVP def2/J RIJCOSX Grid4 TightSCF
%maxcore 5000
%tddft
    Mode sTDDFT
    Ethresh 5.0
    maxcore 5000
end

%pal
  nprocs 6
  end
* xyz 0 1
   C       -4.77852        -2.28158        -1.54384
   C       -3.49456        -2.55537        -1.14866
   C       -2.79239        -3.72755        -1.50002
   N       -2.16378        -4.65533        -1.74902
   C       -2.69724        -1.73743        -0.32138
   N       -1.99036        -1.13749         0.35673
   C       -5.61921        -3.15732        -2.35175
   C       -6.90247        -2.56483        -2.47842
   C       -7.92237        -3.13380        -3.20356
   C       -7.66043        -4.35198        -3.83557
   C       -6.38799        -4.95496        -3.68313
   C       -5.35716        -4.37488        -2.95176
   S       -6.30987        -6.46738        -4.53041
   C       -7.93886        -6.27078        -5.08659
   C       -8.52173        -5.13205        -4.65545
   C       -6.92307        -1.30335        -1.73587
   O       -7.88618        -0.56548        -1.59772
   C       -5.56535        -1.10536        -1.20721
   C       -5.10488         0.02733        -0.58783
   C       -5.79903         1.19285        -0.21567
   C       -5.16162         2.30560         0.35166
   C       -6.04745         3.32487         0.65836
   C       -7.37477         2.96588         0.33386
   S       -7.53926         1.42872        -0.36294
   C       -8.21481         4.04486         0.67351
   C       -7.45160         5.09306         1.21607
   C       -6.05505         4.67198         1.22026
   C       -4.98331         5.39607         1.65269
   C       -3.66455         4.89748         1.59745
   N       -2.58950         4.50225         1.55180
   C       -5.12957         6.69729         2.17731
   N       -5.25490         7.75487         2.60270
   C       -8.23518         6.19466         1.57503
   C       -9.57762         5.98173         1.30839
   S       -9.86845         4.38926         0.59999
   C      -10.71883         6.81382         1.50443
   C      -11.96038         6.34088         1.15115
   C      -13.16103         7.01821         1.26484
   C      -13.22643         8.37412         1.80152
   C      -12.12788         9.04564         2.22090
   S      -10.52295         8.41866         2.18320
   C      -14.60907         8.71432         1.74620
   C      -15.35035         7.65164         1.21198
   C      -16.72731         7.95246         1.14074
   C      -16.99272         9.20079         1.60853
   S      -15.59434        10.06144         2.15267
   C      -14.45388         6.57077         0.90227
   C      -14.63749         5.29094         0.35195
   C      -15.73312         4.62341        -0.11034
   C      -15.58805         3.31870        -0.64307
   C      -14.41328         2.57347        -0.76016
   C      -14.62115         1.33516        -1.34043
   C      -15.96789         1.09789        -1.68553
   S      -16.96742         2.43252        -1.27658
   C      -16.05726        -0.17885        -2.27548
   C      -14.76135        -0.75507        -2.29430
   C      -13.81763         0.18326        -1.73007
   C      -12.46009         0.04330        -1.64106
   C      -11.63497         1.03785        -1.07883
   N      -10.97481         1.85064        -0.60937
   C      -11.79959        -1.10623        -2.12310
   N      -11.27606        -2.04539        -2.52311
   C      -14.73459        -2.01252        -2.87398
   C      -15.98352        -2.41905        -3.32549
   S      -17.22290        -1.20809        -2.96948
   C      -16.35082        -3.62276        -3.95157
   C      -15.54399        -4.57054        -4.51781
   C      -14.15708        -4.57309        -4.91931
   C      -13.42435        -3.50190        -5.37090
   C      -12.09367        -3.59699        -5.81728
   N      -11.00148        -3.62381        -6.17210
   C      -13.93859        -2.19927        -5.51129
   N      -14.32211        -1.12890        -5.67352
   C      -13.73997        -5.96794        -5.02785
   C      -14.89006        -6.79355        -4.94464
   C      -16.07523        -5.94794        -4.70135
   O      -17.23225        -6.29420        -4.61770
   C      -14.82250        -8.16085        -5.06080
   C      -13.56333        -8.74016        -5.25190
   C      -12.42129        -7.90765        -5.31069
   C      -12.48920        -6.52382        -5.20502
   S      -10.97396        -8.83907        -5.53346
   C      -11.89148       -10.30570        -5.55437
   C      -13.21912       -10.11430        -5.39838
   H       -8.88889        -2.65919        -3.27800
   H       -4.40234        -4.86785        -2.87664
   H       -8.36108        -7.03330        -5.71225
   H       -9.51116        -4.80964        -4.92377
   H       -4.04872         0.06575        -0.34887
   H       -4.09865         2.33244         0.51619
   H       -7.86245         7.10636         2.00716
   H      -11.98372         5.34155         0.74297
   H      -12.17343        10.04745         2.61801
   H      -17.48519         7.28916         0.76671
   H      -17.94597         9.68819         1.67208
   H      -13.71255         4.74006         0.27763
   H      -16.71994         5.05961        -0.09601
   H      -13.44761         2.91446        -0.43847
   H      -13.86129        -2.63646        -2.92596
   H      -17.40492        -3.88064        -3.92355
   H      -15.71393        -8.76610        -5.00543
   H      -11.59063        -5.93268        -5.24940
   H      -11.36943       -11.23371        -5.68373
   H      -13.94337       -10.90852        -5.38506
*
