# ORCA input file
# SCF done       -221.968110023789          0.000617880970
! CAM-B3LYP def2-SVP def2/J RIJCOSX Grid4 TightSCF
%maxcore 5000
%tddft
    Mode sTDDFT
    Ethresh 5.0
    maxcore 5000
end

%pal
  nprocs 6
  end
* xyz 0 1
   C       -2.89195         2.78838         2.51699
   C       -2.32888         3.52011         1.48189
   C       -2.49845         3.13854         0.15841
   C       -3.24755         2.01864        -0.17035
   C       -3.81861         1.28376         0.85505
   C       -3.63521         1.66093         2.20450
   C       -4.31080         0.69372         3.05954
   C       -4.47497         0.79939         4.41465
   C       -4.00398         1.88469         5.18476
   N       -3.65116         2.73347         5.87194
   C       -5.16704        -0.11844         5.23286
   N       -5.71703        -0.81803         5.95872
   C       -4.76753        -0.38781         2.19124
   C       -4.66043         0.09800         0.81961
   C       -5.41978        -0.29380        -0.25011
   C       -6.42091        -1.28440        -0.19676
   N       -7.27079        -2.05637        -0.20191
   C       -5.36418         0.31879        -1.52063
   N       -5.36862         0.77739        -2.57214
   C       -5.11285        -1.63282         2.64228
   C       -5.17396        -2.83612         1.91028
   C       -4.58586        -3.16918         0.69581
   C       -4.84946        -4.47866         0.32610
   C       -5.64065        -5.17019         1.27049
   S       -6.03675        -4.20449         2.61205
   C       -5.86362        -6.48069         0.78743
   C       -5.22562        -6.61897        -0.45951
   C       -4.57127        -5.36297        -0.79121
   C       -3.86579        -5.06027        -1.91887
   C       -3.65777        -5.99984        -2.95002
   N       -3.48433        -6.77047        -3.78094
   C       -3.29994        -3.78163        -2.10783
   N       -2.84782        -2.73624        -2.24189
   C       -5.39235        -7.88341        -1.01879
   C       -6.14621        -8.71272        -0.20490
   S       -6.66324        -7.91237         1.27039
   C       -6.50048       -10.06364        -0.44281
   C       -7.19331       -10.91438         0.39948
   C       -7.34887       -12.18372        -0.15461
   C       -6.77497       -12.29820        -1.43391
   S       -6.03996       -10.84706        -1.95016
   C       -6.97971       -13.61971        -1.90606
   C       -7.67615       -14.34070        -0.92111
   C       -7.93342       -13.46385         0.20971
   C       -8.58122       -13.78038         1.36810
   C       -9.09721       -15.07204         1.60168
   N       -9.51231       -16.12537         1.78465
   C       -8.77089       -12.84021         2.40251
   N       -8.92292       -12.07542         3.24303
   C       -7.92119       -15.66369        -1.28716
   C       -7.42103       -15.95468        -2.54331
   S       -6.63690       -14.57119        -3.28280
   C       -7.48506       -17.20013        -3.23091
   C       -7.96091       -18.38390        -2.72993
   C       -7.89813       -19.46308        -3.64669
   C       -7.35048       -19.03529        -4.88635
   S       -6.92782       -17.34731        -4.87951
   C       -7.15432       -19.82390        -6.01131
   O       -6.62849       -19.16240        -7.06601
   C       -6.33213       -19.80947        -8.28266
   C       -7.53306       -21.18102        -5.90120
   C       -8.07011       -21.61359        -4.65576
   C       -8.26887       -20.81778        -3.53389
   O       -8.80320       -21.48550        -2.48151
   C       -9.05426       -20.85920        -1.24763
   S       -8.47975       -23.29746        -4.66168
   C       -7.96477       -23.43620        -6.33839
   C       -7.48692       -22.24241        -6.82807
   C       -8.06839       -24.71130        -6.93895
   C       -7.94913       -25.10683        -8.24231
   C       -8.08733       -26.49410        -8.66690
   C       -7.97358       -27.60762        -7.87752
   C       -8.09774       -28.92835        -8.35923
   N       -8.19152       -30.02307        -8.69123
   C       -7.66290       -27.61256        -6.50008
   N       -7.38619       -27.71210        -5.39013
   C       -8.27690       -26.50278       -10.11112
   C       -8.12668       -25.17954       -10.59060
   C       -7.85313       -24.27059        -9.46168
   O       -7.61553       -23.08287        -9.55973
   C       -8.23840       -24.85545       -11.92123
   C       -8.52208       -25.88715       -12.82158
   C       -8.67806       -27.20657       -12.33233
   C       -8.55749       -27.53454       -10.98766
   S       -9.03398       -28.32494       -13.61295
   C       -8.96849       -27.02420       -14.77257
   C       -8.69411       -25.81360       -14.23082
  Br       -9.27039       -27.38652       -16.58743
   H       -2.74125         3.09540         3.53874
   H       -1.74428         4.39713         1.71402
   H       -2.04008         3.71814        -0.62804
   H       -3.36361         1.72360        -1.20054
   H       -5.30417        -1.74136         3.70161
   H       -3.96098        -2.49375         0.14024
   H       -4.99043        -8.20252        -1.96377
   H       -7.55487       -10.61024         1.36549
   H       -8.44139       -16.37816        -0.67722
   H       -8.33410       -18.45182        -1.72743
   H       -5.91913       -19.02988        -8.92190
   H       -7.22838       -20.22215        -8.75157
   H       -5.58463       -20.59506        -8.14577
   H       -9.45274       -21.64563        -0.60760
   H       -9.80056       -20.06558        -1.34391
   H       -8.13618       -20.46673        -0.80159
   H       -7.12537       -22.17419        -7.83406
   H       -8.32517       -25.48852        -6.22821
   H       -8.11427       -23.83763       -12.25640
   H       -8.68956       -28.55328       -10.66408
   H       -8.61726       -24.90527       -14.79998
*
