# ORCA input file
# SCF done       -196.843644708314          0.000388841279
! CAM-B3LYP def2-SVP def2/J RIJCOSX Grid4 TightSCF
%maxcore 5000
%tddft
    Mode sTDDFT
    Ethresh 5.0
    maxcore 5000
end

%pal
  nprocs 6
  end
* xyz 0 1
   C       -4.93948        -2.16724         0.78506
   C       -4.93074        -2.76853         2.01301
   C       -4.64849        -4.13610         2.22274
   N       -4.42230        -5.23731         2.45151
   C       -5.23136        -2.11974         3.23107
   N       -5.48224        -1.66691         4.25507
   C       -4.72201        -2.82536        -0.49440
   C       -4.94959        -1.89319        -1.53788
   C       -4.82338        -2.22340        -2.86619
   C       -4.45858        -3.53570        -3.18152
   C       -4.22898        -4.45994        -2.13223
   C       -4.35419        -4.12637        -0.79026
   S       -3.77674        -6.02122        -2.74409
   C       -3.90234        -5.42263        -4.37714
   C       -4.26383        -4.11973        -4.46241
  Br       -3.54160        -6.57167        -5.81320
   C       -5.28921        -0.57811        -0.96658
   O       -5.45329         0.45390        -1.57434
   C       -5.25682        -0.77027         0.51530
   C       -5.34213         0.23724         1.40987
   C       -5.78864         1.57201         1.07629
   C       -5.13237         2.69767         1.53573
   F       -4.02866         2.54925         2.28155
   C       -5.52435         4.00812         1.19838
   F       -4.74662         5.01125         1.62326
   C       -6.62471         4.26801         0.40831
   C       -7.36103         3.14383        -0.02970
   C       -6.94949         1.80600         0.29907
   N       -7.80094         0.89562        -0.16608
   S       -8.97453         1.64782        -0.96055
   N       -8.49286         3.15629        -0.73142
   C       -7.02576         5.62729         0.04686
   C       -7.31108         5.99622        -1.24988
   F       -7.17866         5.11484        -2.24649
   C       -7.67870         7.31438        -1.59921
   F       -7.87174         7.57607        -2.89819
   C       -7.77678         8.32974        -0.67389
   C       -7.50737         7.98381         0.66948
   C       -7.14198         6.63938         1.02721
   N       -6.97370         6.50464         2.34159
   S       -7.22979         7.92337         3.04225
   N       -7.58477         8.77777         1.73508
   C       -8.11371         9.70789        -1.02898
   C       -9.22261        10.04813        -1.77263
   F      -10.05973         9.09725        -2.20281
   C       -9.55958        11.38426        -2.06637
   F      -10.66140        11.58592        -2.80686
   C       -8.80301        12.46499        -1.64989
   C       -7.63042        12.13884        -0.92073
   C       -7.29986        10.77880        -0.59616
   N       -6.16443        10.69503         0.09484
   S       -5.59472        12.17258         0.33269
   N       -6.73546        12.99727        -0.43888
   C       -9.08334        13.84406        -1.95392
   C      -10.26182        14.48125        -2.12113
   C      -11.64678        14.10903        -1.88375
   C      -12.10355        13.23566        -0.93566
   C      -13.47148        12.99517        -0.68275
   N      -14.56914        12.76733        -0.44022
   C      -11.26572        12.53605        -0.04418
   N      -10.61998        11.96600         0.71422
   C      -12.47574        15.01369        -2.66946
   C      -11.66329        16.06129        -3.17462
   C      -10.26357        15.82844        -2.77853
   O       -9.30345        16.53292        -2.97193
   C      -12.17427        17.09466        -3.92343
   C      -13.54597        17.08780        -4.19469
   C      -14.34516        16.02691        -3.70095
   C      -13.83134        14.98607        -2.93800
   S      -16.00802        16.21064        -4.16496
   C      -15.61687        17.69194        -4.99819
   C      -14.30713        18.03176        -4.93641
  Br      -16.97248        18.64749        -5.87117
   H       -5.00105        -1.49022        -3.63718
   H       -4.16104        -4.86259        -0.02802
   H       -4.38650        -3.59078        -5.38978
   H       -5.04486         0.08505         2.43996
   H       -8.19814        14.45645        -2.09856
   H      -11.53556        17.88345        -4.28852
   H      -14.47405        14.19417        -2.59076
   H      -13.89325        18.91139        -5.39445
*
