# ORCA input file
# SCF done       -217.034977439550          0.000394025730
! CAM-B3LYP def2-SVP def2/J RIJCOSX Grid4 TightSCF
%maxcore 5000
%tddft
    Mode sTDDFT
    Ethresh 5.0
    maxcore 5000
end

%pal
  nprocs 6
  end
* xyz 0 1
   C       -4.41533        -1.75605         2.25850
   C       -3.05217        -1.79602         2.40315
   C       -2.34122        -2.92517         2.86111
   N       -1.70908        -3.80924         3.23064
   C       -2.16432        -0.74824         2.07807
   N       -1.37010         0.03960         1.81892
   C       -5.32233        -2.87376         2.48501
   C       -6.61893        -2.49514         2.06168
   C       -7.70167        -3.33651         2.14541
   C       -7.49525        -4.61357         2.67696
   C       -6.19636        -4.98185         3.10340
   C       -5.10126        -4.13154         3.01531
   S       -6.16729        -6.59792         3.74037
   C       -7.87578        -6.75561         3.42861
   C       -8.44106        -5.65613         2.87566
  Br       -8.75171        -8.35499         3.86575
   C       -6.59656        -1.10128         1.57324
   O       -7.55115        -0.47731         1.16777
   C       -5.19800        -0.63491         1.76789
   C       -4.74462         0.65386         1.69757
   C       -5.35661         1.80829         1.16000
   C       -4.95817         3.08957         1.49852
   C       -5.76554         4.02994         0.79720
   C       -6.64997         3.21978        -0.03957
   C       -6.42742         1.91183         0.16455
   F       -7.54001         3.75182        -0.88700
   C       -5.76055         5.40553         0.90721
   C       -6.58243         6.34154         0.23487
   C       -6.29288         7.61875         0.69999
   C       -5.23086         7.50287         1.70568
   C       -4.91869         6.20429         1.81105
   F       -3.99740         5.67234         2.61736
   C       -6.88611         8.84272         0.35377
   C       -7.82327         9.00956        -0.63672
   C       -8.45677        10.22122        -0.94284
   C       -9.36218        10.41658        -1.98403
   C       -9.82659        11.74792        -1.95387
   C       -9.14235        12.36938        -0.81394
   C       -8.32345        11.48838        -0.22009
   F       -9.32235        13.64526        -0.45678
   C      -10.73161        12.36878        -2.80060
   C      -11.25976        13.67294        -2.71639
   C      -12.13550        13.88497        -3.77939
   C      -12.16112        12.66542        -4.59087
   C      -11.34555        11.78071        -3.99806
   F      -11.08828        10.53797        -4.41667
   C      -12.87377        15.05594        -3.99365
   C      -13.69011        15.28910        -5.07385
   C      -14.46463        16.44283        -5.25752
   C      -15.24812        16.71800        -6.37358
   C      -15.92152        17.94606        -6.18081
   C      -15.49173        18.41576        -4.85687
   C      -14.62518        17.55087        -4.31037
   F      -15.90675        19.56466        -4.31591
   C      -16.80278        18.58777        -7.02981
   C      -17.55953        19.76111        -6.78163
   C      -18.32913        20.04698        -7.89689
   C      -18.04408        19.03412        -8.91780
   C      -17.15916        18.17513        -8.39140
   F      -16.63302        17.10212        -8.99255
   C      -19.26665        21.08484        -8.07763
   C      -19.64902        21.96621        -7.10650
   C      -20.62123        22.95992        -7.32631
   C      -21.22267        23.75377        -6.38995
   C      -21.24000        23.69423        -4.94629
   C      -21.11618        22.57023        -4.16903
   C      -21.20187        22.57846        -2.76129
   N      -21.24574        22.53173        -1.61520
   C      -21.01337        21.25603        -4.67258
   N      -20.98444        20.16039        -5.01343
   C      -21.65844        25.00796        -4.46376
   C      -22.10093        25.77895        -5.56894
   C      -21.91383        25.00152        -6.81032
   O      -22.21271        25.31858        -7.93891
   C      -22.60425        27.04925        -5.42757
   C      -22.66539        27.58783        -4.13781
   C      -22.20637        26.81602        -3.04349
   C      -21.70292        25.52840        -3.18484
   S      -22.36472        27.67651        -1.54309
   C      -23.04114        29.04112        -2.39250
   C      -23.14154        28.86438        -3.73143
  Br      -23.54999        30.56869        -1.43136
   H       -8.67756        -3.01805         1.81392
   H       -4.13376        -4.45603         3.35992
   H       -9.48210        -5.58095         2.61972
   H       -3.78029         0.85341         2.15260
   H       -4.18929         3.33868         2.20402
   H       -6.92475         1.08797        -0.30342
   H       -7.32138         6.08463        -0.49744
   H       -4.79674         8.32621         2.23855
   H       -6.56451         9.70784         0.91730
   H       -8.10329         8.15575        -1.23858
   H       -9.66401         9.66886        -2.69116
   H       -7.69897        11.66667         0.63219
   H      -11.03051        14.38789        -1.95058
   H      -12.73777        12.51273        -5.48099
   H      -12.77279        15.82400        -3.23897
   H      -13.75240        14.54418        -5.85529
   H      -15.33897        16.09234        -7.23994
   H      -14.14706        17.63797        -3.35531
   H      -17.54478        20.30973        -5.86151
   H      -18.48690        19.00341        -9.89402
   H      -19.75047        21.14202        -9.04493
   H      -19.18767        21.90375        -6.13248
   H      -20.89088        23.17841        -8.35483
   H      -22.94230        27.61030        -6.28457
   H      -21.36045        24.98067        -2.32260
   H      -23.53537        29.60227        -4.40621
*
