# ORCA input file
# SCF done       -190.563137224937          0.000629428348
! CAM-B3LYP def2-SVP def2/J RIJCOSX Grid4 TightSCF
%maxcore 5000
%tddft
    Mode sTDDFT
    Ethresh 5.0
    maxcore 5000
end

%pal
  nprocs 6
  end
* xyz 0 1
   C        1.59072        -0.84948        -0.42998
   C        0.28132        -1.08273        -0.76261
   C       -0.36951        -0.48964        -1.86537
   N       -0.95174        -0.03581        -2.74354
   C       -0.60294        -1.86141         0.00909
   N       -1.36937        -2.46299         0.61675
   C        2.44410         0.14970        -1.07252
   C        3.49841         0.47635        -0.20044
   C        4.44279         1.42638        -0.53159
   C        4.34039         2.05455        -1.76703
   C        3.30453         1.72069        -2.64724
   C        2.34779         0.77037        -2.30570
  Cl        3.20456         2.49041        -4.17785
  Cl        5.49608         3.24233        -2.21518
   C        3.40385        -0.35574         1.01843
   O        4.10281        -0.31663         2.00383
   C        2.28671        -1.30245         0.75453
   C        2.15221        -2.39802         1.55901
   C        1.46049        -3.59664         1.30260
   C        1.03101        -4.11178         0.08647
   C        0.39598        -5.33585         0.22592
   C        0.33672        -5.77892         1.56877
   S        1.09226        -4.69082         2.63784
   C       -0.36640        -7.00222         1.60232
   C       -0.75561        -7.33261         0.28916
   C       -0.29177        -6.29241        -0.61570
   C       -0.49718        -6.21202        -1.96366
   C       -1.20447        -7.20770        -2.66681
   N       -1.77425        -8.03307        -3.22375
   C       -0.01348        -5.12131        -2.71535
   N        0.39110        -4.22743        -3.30903
   C       -1.48062        -8.51369         0.21182
   C       -1.65909        -9.10215         1.45740
   S       -0.90064        -8.16709         2.73787
   C       -2.37641       -10.29449         1.75499
   C       -3.02847       -11.02721         0.78734
   C       -3.77951       -12.17129         1.02884
   C       -3.95266       -12.70049         2.38402
   C       -3.38879       -12.15633         3.48430
   S       -2.39765       -10.75632         3.45262
   C       -4.80556       -13.82813         2.23682
   C       -5.15319       -13.99681         0.89216
   C       -5.98765       -15.12382         0.71072
   C       -6.24922       -15.75216         1.88641
   S       -5.49799       -15.01797         3.26094
   C       -4.51400       -12.96380         0.11775
   C       -4.56577       -12.73450        -1.27470
   C       -5.40859       -13.33332        -2.15828
   C       -5.42078       -13.06967        -3.54959
   C       -4.53871       -12.32028        -4.31073
   C       -4.90149       -12.29562        -5.65321
   C       -6.07575       -13.01452        -5.94835
   S       -6.71520       -13.75432        -4.52412
   C       -6.45805       -12.97173        -7.28087
   C       -5.57742       -12.22026        -8.04458
   S       -4.24544       -11.57895        -7.07197
   C       -5.53805       -11.91340        -9.41867
   C       -6.48315       -12.05535       -10.39781
   C       -6.25484       -11.68832       -11.78648
   C       -5.03932       -11.54377       -12.40374
   C       -4.88236       -11.20831       -13.76474
   N       -4.68799       -10.93281       -14.86220
   C       -3.78428       -11.76684       -11.79852
   N       -2.72637       -11.95476       -11.39261
   C       -7.55180       -11.59283       -12.44183
   C       -8.54713       -12.02100       -11.52946
   C       -7.91920       -12.39120       -10.24782
   O       -8.49598       -12.85556        -9.28570
   C       -9.88237       -12.05199       -11.85197
   C      -10.25410       -11.63228       -13.13270
   C       -9.25295       -11.20066       -14.03558
   C       -7.90142       -11.17591       -13.71201
   S       -9.94162       -10.71913       -15.55406
   C      -11.52997       -11.09283       -14.97994
   C      -11.55237       -11.55684       -13.71154
   H        5.23959         1.67330         0.15196
   H        1.56696         0.52960        -3.00871
   H        2.71498        -2.35336         2.48635
   H        1.22033        -3.62615        -0.85340
   H       -1.86340        -8.92221        -0.70414
   H       -2.95991       -10.66962        -0.22877
   H       -3.52639       -12.56424         4.47312
   H       -6.37499       -15.47301        -0.22826
   H       -6.85101       -16.62626         2.04126
   H       -3.87971       -11.99073        -1.65512
   H       -6.15311       -14.02935        -1.80416
   H       -3.67188       -11.82504        -3.91590
   H       -7.32963       -13.44715        -7.68955
   H       -4.60573       -11.44892        -9.72092
   H      -10.61680       -12.38600       -11.13552
   H       -7.17703       -10.83352       -14.43199
   H      -12.36203       -10.93828       -15.63909
   H      -12.44853       -11.83904       -13.18917
*
