# ORCA input file
# SCF done       -183.847171075126          0.000953426542
! CAM-B3LYP def2-SVP def2/J RIJCOSX Grid4 TightSCF
%maxcore 5000
%tddft
    Mode sTDDFT
    Ethresh 5.0
    maxcore 5000
end

%pal
  nprocs 6
  end
* xyz 0 1
   C        0.40850        -2.16708         2.53106
   C       -0.28222        -1.58070         3.54722
   C       -0.49408        -0.21073         3.29853
   C        0.05340         0.20148         2.07903
   S        0.81925        -1.07699         1.24750
   C       -0.19587         1.59593         1.91599
   C       -0.90221         2.05153         3.03605
   C       -1.11872         0.93146         3.94059
   C       -1.77733         0.95433         5.13685
   C       -2.35322         2.13294         5.65303
   N       -2.82674         3.09018         6.07216
   C       -1.92937        -0.19803         5.93455
   N       -2.06591        -1.13131         6.58730
   C       -1.18662         3.41832         2.97465
   C       -0.71556         3.99435         1.81230
   S        0.10677         2.83201         0.78034
   C       -0.77525         5.38517         1.48152
   C       -0.54040         6.03429         0.28871
   C       -0.20789         5.34703        -0.99072
   O        0.79336         5.56246        -1.61465
   O       -1.06484         4.36916        -1.36126
   C       -0.55976         7.45493         0.41736
   C       -0.83906         7.84808         1.69580
   S       -1.06383         6.53170         2.76759
   C       -0.33728         8.37220        -0.68991
   C        0.38857         9.54210        -0.54168
   C        0.63089        10.38825        -1.61078
   C        0.15659        10.12902        -2.90061
   C       -0.61978         8.94304        -3.06971
   N       -1.11539         8.63530        -4.26950
   C       -1.81784         7.53958        -4.41590
   C       -2.07537         6.69882        -3.32583
   N       -1.61710         6.96745        -2.12997
   C       -0.86509         8.07344        -1.96747
   C        0.48609        11.02965        -3.94679
   C        0.14711        11.08481        -5.27438
   C        0.63421        12.12415        -6.12260
   C        0.18981        12.07764        -7.40367
   C       -0.68994        10.99723        -7.64236
   S       -0.89818        10.02278        -6.18832
   C       -1.34066        10.68527        -8.81465
   C       -1.27892        11.36418       -10.05848
   C       -2.05724        10.82889       -11.03194
   C       -2.80333         9.68460       -10.62429
   S       -2.44593         9.33489        -8.92694
   C       -3.72884         8.94729       -11.29438
   C       -4.09282         9.04994       -12.68404
   C       -3.19150         9.41541       -13.69184
   C       -3.59303         9.49268       -15.00650
   C       -4.91244         9.21978       -15.37196
   C       -5.81396         8.84891       -14.37196
   C       -5.40677         8.73994       -13.06250
   C       -5.36134         9.35311       -16.76372
   C       -6.64197        10.05784       -16.94285
   C       -7.62203         9.56183       -17.80048
   C       -8.82690        10.22241       -17.94413
   C       -9.07458        11.38583       -17.23392
   C       -8.11263        11.87964       -16.36868
   C       -6.90846        11.21818       -16.21830
   C       -4.64937         8.86541       -17.80615
   C       -4.97948         9.18185       -19.20481
   C       -5.25680        10.49012       -19.59756
   C       -5.53755        10.78039       -20.91871
   C       -5.54679         9.77174       -21.86839
   C       -5.26223         8.47010       -21.49032
   C       -4.97306         8.17733       -20.17097
   C       -3.49403         7.97318       -17.61934
   C       -3.55346         6.90063       -16.73103
   C       -2.47248         6.05345       -16.58161
   C       -1.31618         6.26133       -17.31577
   C       -1.25132         7.31673       -18.21036
   C       -2.33334         8.16210       -18.36745
   H        0.71204        -3.19143         2.44809
   H       -0.61667        -2.10561         4.42330
   H       -1.71122         3.97680         3.72899
   H       -1.87978         4.39656        -0.84343
   H       -0.95262         8.84899         2.06187
   H        0.80241         9.78313         0.42650
   H        1.22139        11.27822        -1.44662
   H       -2.18827         7.33416        -5.41003
   H       -2.66313         5.79701        -3.42995
   H        1.13534        11.83980        -3.62938
   H        1.30325        12.87715        -5.74246
   H        0.46269        12.78699        -8.16543
   H       -0.66435        12.23723       -10.18995
   H       -2.16143        11.24775       -12.01612
   H       -4.28826         8.22273       -10.71638
   H       -2.15706         9.59488       -13.44251
   H       -2.88174         9.77730       -15.76801
   H       -6.83743         8.62692       -14.63965
   H       -6.11437         8.43907       -12.30316
   H       -7.43813         8.64803       -18.34611
   H       -9.57851         9.82614       -18.61120
   H      -10.01585        11.90237       -17.35024
   H       -8.30224        12.78329       -15.80763
   H       -6.15744        11.60663       -15.54454
   H       -5.23840        11.28093       -18.86199
   H       -5.74698        11.79926       -21.21038
   H       -5.76945        10.00043       -22.90014
   H       -5.26335         7.68025       -22.22744
   H       -4.75244         7.16079       -19.87669
   H       -4.45880         6.72646       -16.16809
   H       -2.53331         5.22410       -15.89210
   H       -0.47138         5.59939       -17.19573
   H       -0.35431         7.47999       -18.78993
   H       -2.28129         8.98623       -19.06511
*
