# ORCA input file
# SCF done       -191.906878482876          0.000719839036
! CAM-B3LYP def2-SVP def2/J RIJCOSX Grid4 TightSCF
%maxcore 5000
%tddft
    Mode sTDDFT
    Ethresh 5.0
    maxcore 5000
end

%pal
  nprocs 6
  end
* xyz 0 1
   C       -5.10562         2.87375        -2.37458
   C       -5.01689         3.41670        -3.62586
   F       -4.80747         4.73205        -3.77614
   C       -5.14276         2.60487        -4.77012
   F       -5.05034         3.16359        -5.98559
   C       -5.35598         1.26028        -4.64769
   C       -5.45071         0.67130        -3.37222
   C       -5.32370         1.49103        -2.21416
   C       -5.41209         0.92176        -0.92215
   C       -5.61630        -0.42591        -0.79312
   C       -5.73761        -1.23574        -1.95499
   C       -5.66317        -0.71653        -3.21491
   C       -5.92634        -2.63976        -1.55207
   O       -6.08540        -3.57238        -2.32986
   C       -5.87545        -2.65587        -0.08565
   C       -5.73762        -1.28939         0.38023
   C       -5.74489        -0.83874         1.67735
   C       -5.90121        -1.62320         2.83837
   N       -6.02871        -2.17465         3.83863
   C       -5.61397         0.51793         2.04020
   N       -5.50912         1.60053         2.40884
   C       -5.89003        -3.75110         0.75562
   C       -5.99601        -5.11825         0.49123
   N       -6.17641        -5.70333        -0.74375
   C       -6.21074        -7.03879        -0.57913
   C       -6.34603        -8.25256        -1.25008
   C       -6.24500        -9.25093        -0.27715
   N       -6.05946        -8.67726         0.96256
   C       -6.04611        -7.32445         0.81271
   C       -5.91975        -6.12875         1.48533
   C       -6.28619       -10.65793        -0.49948
   C       -5.95634       -11.58967         0.42104
   C       -5.94424       -13.01962         0.24921
   C       -5.26331       -13.80426         1.18966
   C       -5.19189       -15.16984         1.07155
   F       -4.49725       -15.83626         2.02698
   C       -5.81098       -15.88212         0.03425
   C       -6.51238       -15.10172        -0.89403
   C       -6.56427       -13.73175        -0.78911
   F       -7.26552       -13.07433        -1.73508
   C       -5.76238       -17.31705        -0.09251
   N       -4.82932       -18.09089         0.55930
   C       -5.04838       -19.39137         0.23692
   C       -4.58336       -20.68518         0.41812
   C       -5.45070       -21.51670        -0.31333
   N       -6.41046       -20.73939        -0.93518
   C       -6.16752       -19.44002        -0.63667
   C       -6.60551       -18.13450        -0.84924
   C       -5.36051       -22.92075        -0.40811
   C       -6.30737       -23.79793        -0.86058
   C       -7.67244       -23.51537        -1.04512
   C       -8.61742       -24.35237        -1.58101
   C      -10.04867       -24.16709        -1.25647
   O      -10.56162       -23.19076        -0.75273
   C      -10.69891       -25.44160        -1.63362
   C      -11.98668       -25.84328        -1.43111
   C      -12.37473       -27.13985        -1.83987
   C      -11.41633       -27.99529        -2.45609
   C      -11.80799       -29.28935        -2.85265
   C      -13.09082       -29.71420        -2.64784
   C      -14.03770       -28.86747        -2.03912
   C      -13.68876       -27.60643        -1.64376
   F      -15.28887       -29.31059        -1.84857
   F      -13.46057       -30.94621        -3.02509
   C      -10.09104       -27.54678        -2.66415
   C       -9.73880       -26.28825        -2.25916
   C       -8.47499       -25.55991        -2.35247
   C       -7.42909       -25.86913        -3.18768
   C       -6.38621       -24.96401        -3.46938
   N       -5.56236       -24.22000        -3.76332
   C       -7.35064       -27.05647        -3.94019
   N       -7.23463       -28.02082        -4.55291
   H       -5.00739         3.50966        -1.50862
   H       -5.44981         0.65221        -5.53380
   H       -5.30906         1.57119        -0.06846
   H       -5.76023        -1.35598        -4.07916
   H       -5.77985        -3.53970         1.81063
   H       -6.22752        -5.14494        -1.59848
   H       -6.48431        -8.41921        -2.29893
   H       -6.01263        -9.17963         1.83105
   H       -5.78540        -5.95149         2.53355
   H       -6.57178       -10.94716        -1.49848
   H       -5.60849       -11.26835         1.39499
   H       -4.76657       -13.33378         2.02429
   H       -7.01284       -15.57201        -1.72398
   H       -4.11389       -17.74318         1.17380
   H       -3.75889       -21.02223         1.01348
   H       -7.06364       -21.08548        -1.61717
   H       -7.43664       -17.81163        -1.44155
   H       -4.40751       -23.32855        -0.09928
   H       -5.99818       -24.82585        -0.99696
   H       -8.07378       -22.62209        -0.57787
   H      -12.70060       -25.18399        -0.96123
   H      -11.09584       -29.94974        -3.32231
   H      -14.42544       -26.97040        -1.17843
   H       -9.38348       -28.21540        -3.12839
*
