# ORCA input file
# SCF done       -192.794286680203          0.000932020383
! CAM-B3LYP def2-SVP def2/J RIJCOSX Grid4 TightSCF
%maxcore 5000
%tddft
    Mode sTDDFT
    Ethresh 5.0
    maxcore 5000
end

%pal
  nprocs 6
  end
* xyz 0 1
   S        1.00816         0.71743         4.36378
   C        2.01379         0.34307         2.84400
   C        1.10753         0.66715         1.65503
   C        3.25044         1.23550         2.89474
   C        2.34469        -1.13058         2.94353
   C        1.72123        -1.77697         3.98505
   C        0.93178        -0.94516         4.85464
   C        0.20982        -1.33485         5.95305
   C        0.09983        -2.65290         6.43409
   N       -0.04358        -3.69448         6.89287
   C       -0.50262        -0.37713         6.70480
   N       -1.07973         0.40866         7.30899
   C        1.77776        -3.16766         4.20530
   N        1.80217        -4.30510         4.35228
   C        3.24420        -1.74235         2.02628
   C        3.71385        -1.23592         0.81940
   C        4.60576        -2.09327         0.19101
   C        4.84791        -3.27117         0.92968
   S        3.95581        -3.32386         2.37674
   C        5.76190        -4.07672         0.21137
   C        6.09023        -3.40943        -0.98975
   C        5.38179        -2.14106        -1.03666
   C        5.43623        -1.19225        -2.01547
   C        6.23000        -1.34496        -3.17205
   N        6.87419        -1.46399        -4.11265
   C        4.69787         0.00539        -1.91463
   N        4.09040         0.97198        -1.80623
   C        6.97581        -4.12702        -1.77897
   C        7.33687        -5.33302        -1.18650
   S        6.56859        -5.57537         0.37380
   C        8.21421        -6.31075        -1.72107
   C        8.55417        -7.46616        -0.98128
   C        9.43985        -8.47629        -1.49582
   N        9.73238        -9.54240        -0.74418
   C        9.21339        -9.66443         0.45377
   C        8.33006        -8.65958         0.96559
   N        8.03219        -7.60777         0.24214
   C        7.77558        -8.78869         2.26377
   N        7.34798        -8.91932         3.31765
   C        9.54505       -10.80159         1.23174
   N        9.80512       -11.71319         1.87387
   C       10.01969        -8.39238        -2.78261
   C        9.68324        -7.23682        -3.52612
   C        8.80319        -6.21481        -3.00403
   N        8.63578        -5.22412        -3.88148
   S        9.48090        -5.53078        -5.20699
   N       10.10796        -6.93219        -4.75315
   C       10.87133        -9.41668        -3.26661
   C       11.46914        -9.47996        -4.52160
   C       12.23680       -10.62426        -4.67251
   C       12.23247       -11.43974        -3.51953
   S       11.27094       -10.79726        -2.25832
   C       13.03632       -12.57092        -3.78094
   C       13.54635       -12.48236        -5.09251
   C       13.07208       -11.24418        -5.69024
   C       13.36194       -10.75517        -6.92851
   C       14.24438       -11.41341        -7.81355
   N       14.98361       -11.92545        -8.52359
   C       12.82194        -9.53624        -7.39358
   N       12.38223        -8.54799        -7.77296
   C       14.32364       -13.57824        -5.44825
   C       14.43165       -14.50616        -4.42123
   S       13.55018       -13.98443        -2.98511
   C       15.15249       -15.73435        -4.46411
   C       15.42262       -16.41234        -5.62699
   C       16.27145       -17.56630        -5.48549
   C       16.69494       -18.41061        -6.47794
   C       16.37022       -18.28121        -7.84174
   N       16.15508       -18.24160        -8.96767
   C       17.52921       -19.50532        -6.17009
   N       18.20364       -20.39502        -5.90817
   S       16.75582       -17.78427        -3.83103
   C       15.70073       -16.38320        -3.21782
   C       14.60154       -17.00396        -2.35497
   C       16.58669       -15.43951        -2.41104
   C       14.83998       -16.08693        -6.86956
   N       14.29853       -15.82862        -7.84641
   H        0.74951         1.69017         1.74523
   H        0.24719         0.00105         1.64169
   H        1.62965         0.57547         0.70815
   H        2.94413         2.27689         2.96093
   H        3.86444         1.11393         2.00720
   H        3.85319         0.99742         3.76906
   H        3.40671        -0.29838         0.39871
   H        7.35913        -3.82551        -2.73642
   H       11.32403        -8.71235        -5.25919
   H       14.81463       -13.69082        -6.39708
   H       13.95701       -17.64186        -2.95664
   H       13.99418       -16.23575        -1.88328
   H       15.05452       -17.60920        -1.57312
   H       17.36679       -15.01586        -3.04058
   H       17.05743       -15.98531        -1.59704
   H       15.99779       -14.62950        -1.98668
*
