# ORCA input file
# SCF done       -205.472240845176          0.000405480831
! CAM-B3LYP def2-SVP def2/J RIJCOSX Grid4 TightSCF
%maxcore 5000
%tddft
    Mode sTDDFT
    Ethresh 5.0
    maxcore 5000
end

%pal
  nprocs 6
  end
* xyz 0 1
   C       -0.64535         0.13940        -1.21531
   C       -1.25828         0.95871        -2.12421
   C       -0.51598         1.92232        -2.82331
   C        0.82833         2.05401        -2.60419
   C        1.49131         1.22833        -1.67379
   C        2.87824         1.36690        -1.43694
   C        3.48810         0.54882        -0.52474
   C        2.73333        -0.44647         0.16319
   C        1.39143        -0.59590        -0.04010
   C        0.73706         0.24752        -0.96599
   C        3.63116        -1.22101         1.03467
   O        3.35111        -2.10509         1.81011
   C        5.00708        -0.72902         0.71461
   C        4.87151         0.48467        -0.06618
   C        5.77295         1.51358        -0.14977
   C        7.02833         1.51464         0.48761
   N        8.05144         1.56412         1.00679
   C        5.50992         2.73361        -0.80857
   N        5.34555         3.74556        -1.32351
   C        6.07107        -1.48700         1.08982
   C        7.39830        -1.45001         0.60000
   C        7.86621        -0.92020        -0.59313
   C        9.23683        -1.09284        -0.74054
   C        9.82318        -1.77058         0.34511
   S        8.68361        -2.20452         1.53110
   C       11.21771        -1.87424         0.10353
   C       11.50951        -1.25837        -1.12848
   C       10.27526        -0.73526        -1.69223
   C       10.11446        -0.02395        -2.84424
   C       11.19643         0.28684        -3.69504
   N       12.07697         0.53173        -4.38653
   C        8.84527         0.44442        -3.24633
   N        7.80625         0.81362        -3.56052
   C       12.86426        -1.31304        -1.45621
   C       13.59182        -1.96660        -0.48121
   S       12.60079        -2.51610         0.85879
   C       14.99338        -2.25391        -0.41713
   C       15.92165        -1.93424        -1.35735
   C       17.29325        -2.29358        -1.16489
   C       18.27239        -1.99851        -2.09688
   C       19.61341        -2.36159        -1.89210
   N       20.70608        -2.66613        -1.71079
   C       17.98029        -1.32758        -3.29568
   N       17.73726        -0.78167        -4.27640
   C       17.59477        -2.98453         0.05145
   C       16.61033        -3.26896         0.94303
   O       15.31694        -2.91515         0.72754
   C       16.79318        -3.96246         2.18571
   C       15.79449        -4.26519         3.09179
   C       16.29328        -4.95361         4.19617
   C       17.68011        -5.16991         4.12011
   S       18.36803        -4.52831         2.69504
   C       18.08950        -5.87956         5.27737
   C       16.95599        -6.10963         6.08782
   C       15.79037        -5.54039         5.42941
   C       14.49354        -5.55685         5.84900
   C       14.07036        -6.17210         7.04814
   N       13.68738        -6.67032         8.00613
   C       13.46498        -4.96195         5.08568
   N       12.63416        -4.47874         4.46034
   C       17.25192        -6.80250         7.25552
   C       18.60264        -7.11030         7.35148
   S       19.50876        -6.52342         5.94949
   C       19.36294        -7.82389         8.30418
   C       19.03103        -8.34348         9.52240
   C       19.94972        -9.12125        10.34435
   C       21.15497        -9.64930         9.96008
   C       21.98842       -10.41067        10.80800
   N       22.71728       -11.03215        11.44043
   C       21.73488        -9.55642         8.67698
   N       22.26818        -9.54581         7.65952
   C       19.32844        -9.31655        11.64775
   C       18.02492        -8.74628        11.61680
   C       17.18860        -8.78983        12.69527
   C       17.62924        -9.41693        13.88157
   C       16.81121        -9.49801        15.02555
   C       17.26151       -10.10823        16.16486
   C       18.54911       -10.66366        16.20995
   C       19.36877       -10.60195        15.11597
   C       18.93688        -9.98215        13.92559
   C       19.77880        -9.92210        12.79171
   C       17.77701        -8.14540        10.29790
   O       16.76028        -7.58258         9.95129
   H       -1.21181        -0.60470        -0.67472
   H       -2.31803         0.86823        -2.30989
   H       -1.01518         2.56065        -3.53671
   H        1.40367         2.79633        -3.13740
   H        3.42906         2.10792        -1.99492
   H        0.83538        -1.34995         0.49687
   H        5.84730        -2.26410         1.81455
   H        7.22323        -0.47212        -1.32833
   H       13.29693        -0.90313        -2.35006
   H       15.63220        -1.41137        -2.25333
   H       18.61139        -3.28188         0.25525
   H       14.76719        -3.99131         2.93624
   H       16.54344        -7.07429         8.01795
   H       20.39060        -7.96746         7.99062
   H       16.20297        -8.35202        12.64080
   H       15.82102        -9.06854        14.98464
   H       16.62835       -10.16628        17.03746
   H       18.88856       -11.14158        17.11658
   H       20.36021       -11.02950        15.14541
   H       20.76350       -10.35575        12.86087
*
