# ORCA input file
# SCF done       -230.641187100955          0.000807433087
! CAM-B3LYP def2-SVP def2/J RIJCOSX Grid4 TightSCF
%maxcore 5000
%tddft
    Mode sTDDFT
    Ethresh 5.0
    maxcore 5000
end

%pal
  nprocs 6
  end
* xyz 0 1
   C        1.12491         0.37063         0.93721
   C        0.25506        -0.42342        -0.02183
   C        0.28795        -0.24127        -1.39820
   C       -0.49244        -1.03278        -2.22376
   C       -1.31155        -2.01116        -1.68986
   C       -1.34842        -2.19829        -0.31831
   C       -0.56872        -1.41202         0.50786
   C        1.84403         1.54956         0.32208
   C        1.09037         2.50583        -0.35386
   C        1.69987         3.61214        -0.91255
   C        3.06847         3.78775        -0.78924
   C        3.81702         2.86020        -0.08832
   C        3.20977         1.74889         0.47217
   C        2.01767        -0.59346         1.68431
   C        1.86510        -0.58036         3.04960
   C        0.86130         0.32000         3.55051
   C        0.53127         0.54934         4.86157
   C        1.15356        -0.05588         5.96873
   N        1.61149        -0.50240         6.92144
   C       -0.49993         1.45467         5.18487
   N       -1.34289         2.18980         5.43981
   S        0.03086         1.12598         2.25384
   C        2.63104        -1.37430         3.92395
   N        3.27981        -2.02989         4.60640
   C        2.86763        -1.44613         0.93331
   C        3.15671        -1.32140        -0.42065
   C        3.98053        -2.33643        -0.87990
   C        4.32821        -3.26305         0.12744
   S        3.65127        -2.86353         1.63833
   C        5.15735        -4.25718        -0.44216
   C        5.33754        -3.95435        -1.81012
   C        4.60051        -2.74270        -2.12804
   C        4.49219        -2.12154        -3.33805
   C        5.13836        -2.60582        -4.49507
   N        5.66062        -2.99431        -5.43887
   C        3.71421        -0.95609        -3.50157
   N        3.07704        -0.01079        -3.62840
   C        6.13498        -4.87829        -2.46800
   C        6.56432        -5.89388        -1.62052
   S        5.96551        -5.68980         0.02007
   C        7.37193        -7.01768        -1.94163
   C        7.94361        -7.25117        -3.22150
   C        8.71615        -8.42948        -3.48012
   N        9.24444        -8.63048        -4.70056
   C        9.05041        -7.74768        -5.63907
   C        8.29490        -6.58556        -5.38287
   N        7.76592        -6.35708        -4.21357
   C        8.95907        -9.43248        -2.50951
   C        8.41335        -9.18987        -1.23210
   C        7.64291        -8.00068        -0.96644
   N        7.21795        -7.96284         0.29870
   S        7.73074        -9.27309         1.07077
   N        8.51172        -9.95959        -0.14541
   C        9.69262       -10.59777        -2.84509
   C        9.95363       -11.68543        -2.01823
   C       10.67578       -12.67111        -2.67494
   C       10.97785       -12.32628        -4.01104
   S       10.35627       -10.79236        -4.45579
   C       11.69910       -13.39489        -4.58980
   C       11.84595       -14.41872        -3.62800
   C       11.21242       -13.99222        -2.39185
   C       11.13983       -14.69164        -1.22278
   C       11.71101       -15.97487        -1.09120
   N       12.17749       -17.01782        -0.99087
   C       10.49275       -14.18109        -0.07750
   N        9.96624       -13.77430         0.85620
   C       12.52559       -15.52332        -4.11433
   C       12.91812       -15.36423        -5.44076
   S       12.41212       -13.79626        -6.08201
   C       13.62803       -16.30977        -6.22348
   C       14.00202       -16.16740        -7.53964
   C       14.77853       -17.24802        -8.08458
   C       15.26034       -17.36385        -9.36366
   C       15.05714       -16.42884       -10.39488
   N       14.93560       -15.71880       -11.28826
   C       16.02338       -18.49061        -9.73210
   N       16.64571       -19.40982       -10.02220
   S       15.09414       -18.46636        -6.88809
   C       14.06235       -17.60807        -5.58242
   C       12.92771       -18.56823        -5.29797
   C       13.24764       -19.84310        -4.83585
   C       12.25525       -20.76847        -4.57958
   C       10.92677       -20.43939        -4.79469
   C       10.60422       -19.18688        -5.28265
   C       11.59735       -18.25607        -5.54050
   C       14.96479       -17.31933        -4.39558
   C       16.08984       -16.52802        -4.60618
   C       16.93523       -16.21298        -3.55975
   C       16.66540       -16.68166        -2.28484
   C       15.54695       -17.46580        -2.06716
   C       14.69985       -17.78587        -3.11429
   C       13.68198       -15.04804        -8.32993
   N       13.40712       -14.12181        -8.94953
   H        0.91950         0.51238        -1.84377
   H       -0.45248        -0.87750        -3.29111
   H       -1.91960        -2.62441        -2.33740
   H       -1.98436        -2.95733         0.11148
   H       -0.60796        -1.56462         1.57750
   H        0.01970         2.38043        -0.43044
   H        1.10342         4.34051        -1.44017
   H        3.54617         4.65077        -1.22690
   H        4.88097         2.99868         0.03130
   H        3.81078         1.04304         1.02646
   H        2.79987        -0.51175        -1.02650
   H        6.41172        -4.85237        -3.50542
   H        9.49253        -7.94946        -6.60388
   H        8.12347        -5.83704        -6.14349
   H        9.61380       -11.72108        -0.99937
   H       12.72337       -16.41003        -3.54421
   H       14.28503       -20.10851        -4.68877
   H       12.52098       -21.74982        -4.21759
   H       10.14943       -21.16090        -4.59509
   H        9.57382       -18.92655        -5.47292
   H       11.31872       -17.29099        -5.93577
   H       16.31231       -16.16078        -5.59854
   H       17.80554       -15.60104        -3.74260
   H       17.32522       -16.43677        -1.46647
   H       15.32036       -17.83281        -1.07820
   H       13.83019       -18.39366        -2.91522
*
