# ORCA input file
# SCF done       -255.429172641705          0.000537573327
! CAM-B3LYP def2-SVP def2/J RIJCOSX Grid4 TightSCF
%maxcore 5000
%tddft
    Mode sTDDFT
    Ethresh 5.0
    maxcore 5000
end

%pal
  nprocs 6
  end
* xyz 0 1
   C       -5.32457        -2.55804        -0.31334
   C       -5.02921        -3.54845         0.57848
   C       -4.74153        -4.87787         0.20011
   N       -4.50396        -5.96847        -0.06316
   C       -4.91286        -3.33373         1.96914
   N       -4.79641        -3.19316         3.10187
   C       -5.38481        -2.67449        -1.76084
   C       -5.37143        -1.37248        -2.32499
   C       -5.43672        -1.15878        -3.68080
   C       -5.58621        -2.27314        -4.51109
   C       -5.63195        -3.56886        -3.93374
   C       -5.50952        -3.78947        -2.56883
   S       -5.89820        -4.78990        -5.13008
   C       -5.94791        -3.57428        -6.37144
   C       -5.76282        -2.30996        -5.91855
  Br       -6.23325        -4.07558        -8.14845
   C       -5.37891        -0.37063        -1.24683
   O       -5.19702         0.82007        -1.34042
   C       -5.62424        -1.16252        -0.00206
   C       -6.21555        -0.71607         1.12515
   C       -6.81070         0.59305         1.31212
   C       -6.57282         1.19491         2.63056
   C       -7.59580         1.82864         3.33904
   C       -7.34385         2.38612         4.57344
   C       -6.06794         2.32514         5.13366
   C       -5.05643         1.65591         4.44847
   C       -5.31163         1.08827         3.21592
   C       -5.87808         2.95533         6.47556
   O       -6.79588         3.18076         7.21495
   O       -4.62080         3.27395         6.82093
   C       -7.62821         1.16450         0.38024
   C       -8.08293         0.42780        -0.80881
   C       -8.52166        -0.89414        -0.72516
   C       -8.79112        -1.61589        -1.86748
   C       -8.67118        -1.02249        -3.12335
   C       -8.31633         0.32278        -3.20637
   C       -8.02240         1.03619        -2.06207
   C       -8.82457        -1.88231        -4.32743
   O       -8.58447        -3.06058        -4.31379
   O       -9.20719        -1.27745        -5.46356
   C       -8.08203         2.54035         0.47803
   C       -7.23386         3.59434         0.86432
   C       -7.69957         4.94850         0.95137
   N       -6.85694         5.92102         1.37852
   C       -5.64668         5.60852         1.68513
   C       -5.17529         4.26430         1.56829
   N       -5.94498         3.31408         1.16870
   F       -3.92130         3.95889         1.88605
   F       -4.83872         6.57130         2.10734
   C       -9.03289         5.29584         0.67812
   C       -9.86926         4.25766         0.23792
   C       -9.39525         2.89791         0.12828
   N      -10.36347         2.07168        -0.28661
   S      -11.70022         2.91583        -0.53379
   N      -11.15125         4.36272        -0.13180
   C       -9.50896         6.65635         0.87341
   C       -8.66239         7.73058         0.35877
   C       -8.42404         8.87989         1.11223
   C       -7.64126         9.89977         0.60687
   C       -7.08382         9.79228        -0.66504
   C       -7.29968         8.63122        -1.40802
   C       -8.07683         7.61278        -0.90451
   C       -6.22675        10.84904        -1.28334
   O       -5.47123        10.61911        -2.18698
   O       -6.35318        12.09282        -0.79346
   C      -10.67800         6.91629         1.53625
   C      -11.41473         5.83945         2.22333
   C      -10.75235         4.93228         3.05233
   C      -11.44947         3.93829         3.70843
   C      -12.82802         3.83060         3.54304
   C      -13.49366         4.72528         2.70722
   C      -12.79468         5.71843         2.05542
   C      -13.62043         2.79021         4.23855
   O      -14.81717         2.67629         4.14694
   O      -12.87424         1.96776         4.98577
   C      -11.25897         8.22888         1.51454
   C      -12.17434         8.74091         2.37602
   C      -12.62700         8.26773         3.67009
   C      -11.83411         7.65254         4.60075
   C      -12.29556         7.19924         5.85141
   N      -12.65315         6.79198         6.86261
   C      -10.44576         7.51825         4.39585
   N       -9.30683         7.49164         4.25687
   C      -13.96531         8.79720         3.87770
   C      -14.21854         9.78253         2.88665
   C      -13.06818         9.85977         1.96277
   O      -12.90078        10.61834         1.03730
   C      -15.38743        10.50413         2.85434
   C      -16.35040        10.23233         3.83228
   C      -16.09177         9.23594         4.80635
   C      -14.90626         8.51261         4.84795
   S      -17.42038         9.05996         5.90929
   C      -18.29256        10.31258         5.06588
   C      -17.62506        10.83533         4.00910
  Br      -19.99995        10.80992         5.65721
   H       -5.40440        -0.15906        -4.08511
   H       -5.54793        -4.79026        -2.17089
   H       -5.76651        -1.44071        -6.55078
   H       -6.28429        -1.37857         1.98103
   H       -8.59206         1.86664         2.92220
   H       -8.12347         2.87774         5.13573
   H       -4.06932         1.53952         4.87542
   H       -4.52131         0.58240         2.68287
   H       -3.97767         3.08781         6.12381
   H       -8.63209        -1.35803         0.24365
   H       -9.08945        -2.65172        -1.81255
   H       -8.20628         0.81114        -4.16596
   H       -7.68558         2.05874        -2.13792
   H       -9.43384        -0.34711        -5.33236
   H       -8.81447         8.94339         2.11636
   H       -7.44519        10.75809         1.23589
   H       -6.84420         8.55728        -2.38385
   H       -8.25529         6.72393        -1.49209
   H       -7.02437        12.15768        -0.10120
   H       -9.68748         5.02996         3.20359
   H      -10.93665         3.24904         4.36065
   H      -14.56121         4.62190         2.58513
   H      -13.31196         6.39706         1.39370
   H      -13.44112         1.32620         5.44201
   H      -11.03422         8.84503         0.65009
   H      -15.55513        11.25637         2.09963
   H      -14.74629         7.75935         5.60201
   H      -18.01467        11.61438         3.37971
*
