# ORCA input file
# SCF done       -202.286588199335          0.000876416877
! CAM-B3LYP def2-SVP def2/J RIJCOSX Grid4 TightSCF
%maxcore 5000
%tddft
    Mode sTDDFT
    Ethresh 5.0
    maxcore 5000
end

%pal
  nprocs 6
  end
* xyz 0 1
   C        3.11470         1.74620         1.34763
   S        3.94799         0.36720         1.89855
   C        3.31243        -0.61666         0.60822
   C        2.49807         0.14154        -0.21586
   C        2.38670         1.49572         0.21195
   C        1.62973         2.50087        -0.42690
   N        1.02245         3.33117        -0.92988
   C        1.83903        -0.35785        -1.45653
   F        0.79526        -1.17789        -1.21179
   F        1.35502         0.62294        -2.22617
   F        2.67655        -1.05708        -2.24814
   C        3.71946        -1.98515         0.58281
   C        3.14462        -3.01605        -0.07630
   C        3.69344        -4.33116         0.01557
   N        4.60551        -4.63234         0.93082
   C        4.81055        -5.96070         0.82935
   C        3.95597        -6.54834        -0.20679
   C        4.18000        -7.99801        -0.31255
   O        3.64389        -8.79374        -1.05164
   C        5.22406        -8.23065         0.70748
   C        5.57676        -6.96244         1.38002
   N        6.55440        -7.16148         2.29641
   C        6.82916        -8.44238         2.23030
   C        6.04309        -9.16675         1.25157
   C        3.26646        -5.50752        -0.77532
   C        2.36629        -5.56917        -1.88137
   C        2.14116        -4.55842        -2.74676
   C        1.24335        -4.56813        -3.87186
   C        1.10914        -3.40481        -4.60541
   C        0.21467        -3.33858        -5.68699
   C       -0.12180        -2.29637        -6.54750
   C        0.35901        -0.88759        -6.53635
   C        0.09675        -0.21798        -5.17036
   N       -0.07358         1.20654        -5.36058
   C        1.84678        -0.80660        -6.92750
   N        2.25472         0.58062        -7.07949
   C       -1.10924        -2.81563        -7.46201
   C       -1.76288        -2.23261        -8.48453
   C       -2.81307        -2.95620        -9.24463
   C       -2.95545        -4.40788        -8.89622
   C       -2.28610        -4.97638        -7.87181
   C       -1.36079        -4.22242        -7.11803
   C       -0.54953        -4.52727        -6.03858
   C       -0.37865        -5.71185        -5.28829
   C        0.48417        -5.72569        -4.23917
   C       -4.17988        -2.40280        -8.93153
   C       -4.48920        -1.76377        -7.79220
   C       -5.81355        -1.30614        -7.52317
   N       -6.81117        -1.50376        -8.37229
   C       -7.89978        -0.95758        -7.79798
   C       -7.57684        -0.37303        -6.48685
   C       -8.77856         0.22192        -5.87655
   O       -8.87906         0.78397        -4.80791
   C       -9.81554        -0.03835        -6.88994
   C       -9.23788        -0.76109        -8.04313
   N      -10.18563        -1.00054        -8.98076
   C      -11.28761        -0.48163        -8.49298
   C      -11.12759         0.13625        -7.19326
   C       -6.23309        -0.58089        -6.29986
   C       -5.38314        -0.22061        -5.21670
   C       -5.83048         0.34942        -4.07400
   C       -4.98480         0.70127        -2.98832
   S       -3.25221         0.55996        -3.04502
   C       -3.07977         1.11800        -1.41283
   C       -4.30523         1.42765        -0.86756
   C       -5.39037         1.18654        -1.75160
   C       -6.74762         1.35981        -1.41643
   N       -7.85379         1.46750        -1.13975
   C       -4.49642         2.00928         0.49753
   F       -3.50261         2.84088         0.85381
   F       -5.62366         2.71766         0.60811
   F       -4.55049         1.06066         1.45768
   C       -1.75341         1.17533        -0.83795
   C       -1.45988         0.85829         0.41715
   H        3.18737         2.68112         1.86741
   H        4.58258        -2.22259         1.19190
   H        2.24346        -2.90716        -0.65606
   H        7.57954        -8.87046         2.87211
   H        6.12179       -10.21493         1.04087
   H        1.91128        -6.53907        -2.02942
   H        2.69282        -3.63575        -2.62097
   H        1.69353        -2.53887        -4.33577
   H       -0.20983        -0.31205        -7.27344
   H        0.92082        -0.47161        -4.49039
   H       -0.82944        -0.61648        -4.74081
   H        0.78229         1.58447        -5.75769
   H       -0.24224         1.66649        -4.47293
   H        1.99803        -1.40678        -7.84195
   H        2.45859        -1.24929        -6.13810
   H        1.79306         0.99593        -7.88273
   H        3.25542         0.64081        -7.23159
   H       -1.59725        -1.19986        -8.75918
   H       -2.63348        -2.84119       -10.32136
   H       -3.66613        -4.96919        -9.48170
   H       -2.43423        -6.01927        -7.63263
   H       -0.93938        -6.59547        -5.55451
   H        0.61322        -6.63121        -3.66839
   H       -4.96399        -2.59281        -9.64976
   H       -3.73173        -1.57153        -7.04582
   H      -12.20617        -0.53774        -9.05099
   H      -11.90319         0.61460        -6.62879
   H       -4.32434        -0.42423        -5.32148
   H       -6.88632         0.55466        -3.94117
   H       -0.97305         1.46219        -1.52966
   H       -2.19944         0.52276         1.12257
   H       -0.45077         0.92149         0.78383
*
