# ORCA input file
# SCF done       -211.773794372709          0.000718479874
! CAM-B3LYP def2-SVP def2/J RIJCOSX Grid4 TightSCF
%maxcore 5000
%tddft
    Mode sTDDFT
    Ethresh 5.0
    maxcore 5000
end

%pal
  nprocs 6
  end
* xyz 0 1
   C      -10.84046         4.53405         0.30072
   C       -9.58159         5.10484         0.18242
   C       -8.43239         4.35825         0.39852
   C       -8.50904         3.01881         0.75024
   C       -9.76043         2.43960         0.87198
   C      -10.93269         3.19382         0.64053
   C      -12.09347         2.32763         0.81456
   C      -13.40344         2.72924         0.78209
   C      -13.81709         4.06317         0.58314
   N      -14.22580         5.12465         0.42747
   C      -14.52195         1.89394         0.98202
   N      -15.47924         1.27816         1.13692
   C      -11.58352         0.97837         1.01310
   C      -10.15479         1.09544         1.26348
   C       -9.39557         0.23643         2.01532
   C       -9.91908        -0.89673         2.67141
   N      -10.32216        -1.79514         3.26200
   C       -8.03178         0.43920         2.30467
   N       -6.91575         0.54197         2.55365
   C      -12.33329        -0.16285         0.87993
   C      -11.90968        -1.47670         0.61388
   S      -10.33513        -1.88103        -0.07936
   C      -12.70077        -2.61551         0.76108
   C      -12.04306        -3.77228         0.38682
   C      -12.30722        -5.23630         0.37244
   O      -13.30757        -5.82245         0.69857
   C      -10.74462        -3.53281        -0.09964
   C      -10.13718        -4.76617        -0.42968
   S       -8.64146        -5.34802        -1.01857
   C      -11.03088        -5.80646        -0.14369
   C      -10.49441        -7.06493        -0.38008
   C       -9.19157        -7.00505        -0.85312
   C       -8.30052        -8.09486        -1.14003
   C       -8.56815        -9.36208        -0.66852
   C       -7.64717       -10.40294        -0.88610
   C       -7.65705       -11.72456        -0.46108
   C       -8.72961       -12.39037         0.33178
   C       -9.29579       -13.62616        -0.39453
   N      -10.66092       -13.84513         0.03739
   C       -8.23544       -12.73074         1.75014
   N       -9.33967       -13.18288         2.58226
   C       -6.42118       -12.31429        -0.92036
   C       -5.88470       -13.53339        -0.72836
   C       -4.53124       -13.88558        -1.25141
   C       -3.90110       -12.83811        -2.10800
   C       -4.43852       -11.61564        -2.27313
   C       -5.68112       -11.29144        -1.67701
   C       -6.42883       -10.13326        -1.63854
   C       -6.19830        -8.82982        -2.13884
   C       -7.09828        -7.84872        -1.88468
   C       -4.58747       -15.25845        -1.86580
   C       -4.45615       -15.51811        -3.16951
   C       -4.49896       -16.83440        -3.73678
   S       -4.20851       -17.02533        -5.45289
   C       -4.72104       -18.05011        -3.11475
   C       -4.65333       -19.11660        -4.00626
   C       -4.77985       -20.59781        -3.95045
   O       -5.03497       -21.29369        -3.00093
   C       -4.37697       -18.71885        -5.31857
   C       -4.29787       -19.87084        -6.14689
   S       -3.99729       -20.25833        -7.77320
   C       -4.51999       -21.01147        -5.35659
   C       -4.40670       -22.19339        -6.06543
   C       -4.10782       -21.97671        -7.40866
   C       -3.96632       -22.90072        -8.46426
   C       -3.67038       -24.23459        -8.37369
   C       -3.97060       -25.21721        -9.40914
   C       -4.29156       -24.97647       -10.71854
   C       -4.35471       -23.70624       -11.32909
   N       -4.42539       -22.70787       -11.89245
   C       -4.56936       -25.98782       -11.66325
   N       -4.80277       -26.75530       -12.48416
   C       -3.87584       -26.52976        -8.78250
   C       -3.38689       -26.37424        -7.46564
   C       -3.22600       -27.47153        -6.63601
   C       -3.55123       -28.72637        -7.12873
   C       -4.02028       -28.88344        -8.42521
   C       -4.18772       -27.79157        -9.26405
   C       -3.10744       -24.96407        -7.24394
   C       -2.23754       -24.46862        -6.30885
   C       -1.63368       -25.25361        -5.30426
   N       -1.12205       -25.84122        -4.46187
   C       -1.75859       -23.14270        -6.29409
   N       -1.29790       -22.09158        -6.26546
   H      -11.72073         5.13018         0.12567
   H       -9.49873         6.14714        -0.08528
   H       -7.46433         4.82350         0.29223
   H       -7.61079         2.44477         0.91100
   H      -13.41014        -0.05407         0.90949
   H      -13.69800        -2.57624         1.16050
   H      -11.03193        -7.98217        -0.22707
   H       -9.46164        -9.55499        -0.09609
   H       -9.56709       -11.69343         0.43383
   H       -8.63568       -14.49138        -0.21775
   H       -9.30852       -13.43095        -1.47241
   H      -10.66448       -14.00786         1.04054
   H      -11.05853       -14.65527        -0.42453
   H       -7.72148       -11.84251         2.15725
   H       -7.50402       -13.54188         1.70448
   H      -10.00553       -12.42778         2.71487
   H       -9.00114       -13.45876         3.49793
   H       -6.39684       -14.30673        -0.17495
   H       -3.88884       -13.98735        -0.35658
   H       -2.95084       -13.09706        -2.54938
   H       -3.93327       -10.86751        -2.86631
   H       -5.30210        -8.62575        -2.70539
   H       -6.92897        -6.84606        -2.24983
   H       -4.76935       -16.06214        -1.16668
   H       -4.28872       -14.70887        -3.86694
   H       -4.92049       -18.15964        -2.06542
   H       -4.57178       -23.16873        -5.64409
   H       -4.18028       -22.50206        -9.44698
   H       -2.87000       -27.36004        -5.62468
   H       -3.43823       -29.59048        -6.49221
   H       -4.26406       -29.86983        -8.78894
   H       -4.55896       -27.93361       -10.26543
*
