# ORCA input file
# SCF done       -234.208350516783          0.000545698987
! CAM-B3LYP def2-SVP def2/J RIJCOSX Grid4 TightSCF
%maxcore 5000
%tddft
    Mode sTDDFT
    Ethresh 5.0
    maxcore 5000
end

%pal
  nprocs 6
  end
* xyz 0 1
   C       -0.38233         0.78648        -4.21771
   C        0.91320         1.20114        -4.06655
   C        1.95017         0.86230        -4.95858
   N        2.83586         0.63179        -5.65282
   C        1.43111         1.92787        -2.97354
   N        1.98511         2.44592        -2.11122
   C       -0.84708        -0.18238        -5.20466
   C       -2.12702        -0.66553        -4.80370
   C       -2.79353        -1.61665        -5.52049
   C       -2.20527        -2.13315        -6.69680
   C       -0.93435        -1.64243        -7.11400
   C       -0.26531        -0.65982        -6.34964
   C       -0.36167        -2.15919        -8.29445
   C       -1.00928        -3.11656        -9.02616
   C       -2.25993        -3.60033        -8.61331
   C       -2.84482        -3.11919        -7.47361
   C       -2.55530         0.03580        -3.57769
   O       -3.57051        -0.13058        -2.94550
   C       -1.49826         1.05805        -3.32619
   C       -1.72650         2.09440        -2.49297
   C       -0.94388         3.31275        -2.43357
   C       -0.52839         3.83270        -1.19787
   C       -1.04215         3.24092         0.04796
   O       -1.27334         2.05624         0.18506
   C       -1.33262         4.23457         1.10675
   C       -1.28616         3.92344         2.43594
   S       -1.66166         5.25358         3.44075
   C       -1.90129         6.26126         2.06692
   C       -1.69622         5.60627         0.89101
   C       -1.98062         6.21773        -0.43999
   O       -2.80444         5.72166        -1.18153
   C       -1.21796         7.43373        -0.81516
   C       -0.16281         7.93605        -0.05345
   C        0.60279         8.98215        -0.53359
   C        0.32569         9.54772        -1.76858
   C       -0.73551         9.06953        -2.52174
   C       -1.49980         8.02132        -2.04992
   C        0.33082         4.92660        -1.18505
   C        0.60717         5.61299        -2.34406
   C        0.03448         5.22656        -3.56037
   C       -0.66327         4.02101        -3.59777
   C        0.10370         6.11819        -4.70292
   C       -0.89878         6.35887        -5.62317
   C       -2.23979         5.74103        -5.80092
   N       -0.50299         7.41112        -6.39299
   C        0.71725         7.87527        -5.99330
   C        1.38779         9.00547        -6.68582
   C        1.13158         7.09240        -4.94015
   C        2.35308         7.16724        -4.17484
   C        2.89708         8.30209        -3.71241
   C        4.04030         8.30699        -2.82033
   C        4.92026         9.40378        -2.69231
   C        4.68011        10.68535        -3.38718
   O        3.57985        11.07624        -3.73175
   C        5.87332        11.52432        -3.65727
   C        7.05223        11.04836        -4.15196
   S        8.16135        12.30143        -4.53527
   C        7.03330        13.49386        -4.03909
   C        5.86354        12.95582        -3.59238
   C        4.73654        13.78063        -3.09268
   O        4.46051        14.85173        -3.58768
   C        3.98843        13.20639        -1.94726
   C        2.61552        13.42022        -1.86448
   C        1.88904        12.86866        -0.82648
   C        2.53004        12.12039         0.14800
   C        3.90064        11.92662         0.08592
   C        4.62918        12.46406        -0.95871
   C        6.01155         9.29859        -1.82096
   C        6.24806         8.15919        -1.08887
   C        5.37795         7.06478        -1.19783
   C        4.27590         7.17789        -2.03452
   C        5.58011         5.88445        -0.39087
   C        5.24012         4.60975        -0.70135
   C        5.37442         3.47408         0.20465
   C        5.43070         3.54727         1.57052
   C        5.55180         2.42659         2.41934
   N        5.66895         1.56197         3.16505
   C        5.33437         4.74157         2.31592
   N        5.22915         5.66755         2.98724
   C        5.32398         2.25733        -0.58696
   C        5.06403         2.60970        -1.94184
   C        4.93570         4.06930        -2.06581
   O        4.70207         4.68576        -3.08100
   C        4.94727         1.66518        -2.92129
   C        5.08051         0.30127        -2.58034
   C        5.34701        -0.05868        -1.22711
   C        5.46884         0.94044        -0.23619
   C        5.48143        -1.42401        -0.90142
   C        5.35278        -2.38859        -1.86311
   C        5.08588        -2.03273        -3.19398
   C        4.95469        -0.71678        -3.54628
   H       -3.75942        -1.97180        -5.19335
   H        0.69057        -0.29912        -6.69603
   H        0.60266        -1.78563        -8.60670
   H       -0.56140        -3.50745        -9.92755
   H       -2.75731        -4.35563        -9.20316
   H       -3.80755        -3.48759        -7.15081
   H       -2.61110         2.02976        -1.86910
   H       -1.02717         2.97410         2.86147
   H       -2.21721         7.27704         2.20333
   H        0.07558         7.49532         0.90301
   H        1.43404         9.35152         0.04834
   H        0.94120        10.35374        -2.13924
   H       -0.95565         9.50715        -3.48366
   H       -2.31629         7.62059        -2.63187
   H        0.76678         5.25063        -0.25141
   H        1.20300         6.50983        -2.29999
   H       -1.03318         3.64404        -4.53968
   H       -2.63877         5.42673        -4.83844
   H       -2.19355         4.86724        -6.45332
   H       -2.92735         6.45745        -6.24798
   H       -1.04023         7.79772        -7.15248
   H        1.24187         8.93984        -7.76357
   H        2.45258         8.99057        -6.47072
   H        0.98963         9.96281        -6.34629
   H        2.80721         6.21064        -3.94747
   H        2.46899         9.25355        -3.98006
   H        7.31636        10.02657        -4.34302
   H        7.29164        14.53352        -4.07809
   H        2.13469        14.00391        -2.63457
   H        0.82106        13.02152        -0.77319
   H        1.96128        11.69679         0.96293
   H        4.40244        11.35356         0.85197
   H        5.70120        12.33160        -0.99262
   H        6.67385        10.14260        -1.70109
   H        7.10126         8.10403        -0.42915
   H        3.55027         6.38425        -2.03273
   H        6.07901         6.06215         0.55549
   H        4.74501         1.95105        -3.94271
   H        5.67850         0.63953         0.77841
   H        5.68427        -1.69283         0.12501
   H        5.45479        -3.43178        -1.60318
   H        4.98525        -2.80720        -3.93975
   H        4.74170        -0.43543        -4.56678
*
