# ORCA input file
# SCF done       -198.879734305882          0.002629471566
! CAM-B3LYP def2-SVP def2/J RIJCOSX Grid4 TightSCF
%maxcore 5000
%tddft
    Mode sTDDFT
    Ethresh 5.0
    maxcore 5000
end

%pal
  nprocs 6
  end
* xyz 0 1
   C        3.60566         1.55329        -3.10349
   C        2.89952         1.48500        -4.27584
   C        2.92216         0.37494        -5.14801
   N        2.89714        -0.48986        -5.90219
   C        2.06008         2.49586        -4.78964
   N        1.35880         3.27209        -5.26264
   C        4.47272         0.50803        -2.57565
   C        5.06585         0.97345        -1.36752
   C        5.92370         0.20121        -0.63799
   C        6.23812        -1.09770        -1.09420
   C        5.64908        -1.57263        -2.30192
   C        4.76183        -0.75116        -3.03377
   C        5.96861        -2.87159        -2.74756
   C        6.82826        -3.66385        -2.03638
   C        7.40744        -3.19507        -0.84772
   C        7.11904        -1.93908        -0.38668
   C        4.61318         2.34466        -1.08795
   O        4.92960         3.03070        -0.14055
   C        3.65678         2.68017        -2.18141
   C        2.85004         3.77251        -2.22117
   C        2.89518         4.91889        -1.37255
   C        3.98946         5.54275        -0.84453
   C        3.56003         6.76166        -0.18817
   C        4.40221         7.64498         0.50257
   N        5.07435         8.38663         1.06340
   C        2.21343         6.91107        -0.35940
   C        1.72467         5.77940        -1.11110
   C        0.41883         5.52275        -1.43282
   C       -0.70548         6.49475        -1.43046
   C       -1.86284         5.78029        -1.50336
   C       -1.53086         4.37476        -1.60678
   C       -0.16804         4.22839        -1.62310
   C       -2.47570         3.34000        -1.66668
   N       -3.25222         2.49634        -1.70924
   C       -0.59493         7.91712        -1.49175
   C        0.48039         8.55860        -1.99899
   C        0.71326         9.97150        -2.01433
   C        1.92660        10.47864        -2.47133
   C        2.99681         9.70752        -2.92382
   N        3.86376         9.03802        -3.26924
   S        2.03275        12.20200        -2.35941
   C        0.43570        12.28330        -1.68254
   C       -0.13216        11.02525        -1.55501
   C       -1.43731        10.86260        -1.06120
   N       -2.50870        10.75589        -0.66360
   C       -0.09155        13.52832        -1.20777
   C       -0.79407        13.71300        -0.05562
   C       -0.92344        15.13924         0.18008
   C       -1.60161        15.70352         1.26940
   N       -2.14351        16.16647         2.16827
   C       -0.25443        15.81813        -0.79751
   C        0.26459        14.85614        -1.73632
   C        0.81942        15.13916        -2.95824
   C        1.46368        16.41357        -3.36016
   C        1.57293        16.40158        -4.72392
   C        1.06428        15.14377        -5.21315
   C        0.67449        14.36275        -4.15125
   C        0.98488        14.79469        -6.56965
   N        0.92453        14.51692        -7.68101
   C        2.05072        17.35299        -2.47237
   C        2.37448        17.06505        -1.18263
   C        2.93247        18.00409        -0.28618
   C        3.15752        17.73701         1.03444
   C        3.75734        18.62310         2.01760
   C        4.15567        19.91998         1.81967
   C        4.73119        20.73220         2.82037
   N        5.20479        21.44548         3.58428
   C        4.04572        20.63886         0.61103
   N        3.98956        21.29242        -0.33165
   C        3.85949        17.88854         3.27277
   C        3.29621        16.59233         3.09155
   C        2.82255        16.45108         1.70962
   O        2.26708        15.48175         1.22851
   C        3.24898        15.67688         4.10418
   C        3.78005        16.01871         5.36707
   C        4.35296        17.31016         5.55501
   C        4.38206        18.23910         4.48990
   C        4.88727        17.63867         6.81738
   C        4.85680        16.73686         7.84621
   C        4.29053        15.46692         7.66075
   C        3.76353        15.11515         6.44757
   H        6.35803         0.57961         0.27546
   H        4.32908        -1.14314        -3.94015
   H        5.52073        -3.22808        -3.66327
   H        7.06702        -4.65698        -2.38609
   H        8.08293        -3.83419        -0.29917
   H        7.56167        -1.57229         0.52764
   H        2.06763         3.79881        -2.96866
   H        5.01297         5.23198        -0.91733
   H        1.59838         7.66738         0.08854
   H       -2.86276         6.17022        -1.53581
   H        0.36000         3.29444        -1.61432
   H       -1.45785         8.47384        -1.15363
   H        1.28385         7.97773        -2.43468
   H       -1.16572        12.95638         0.60901
   H       -0.22077        16.88270        -0.92352
   H        2.01004        17.16110        -5.34446
   H        0.18239        13.41127        -4.22303
   H        2.30291        18.32260        -2.88505
   H        2.21350        16.06827        -0.80077
   H        3.17674        18.98076        -0.68312
   H        2.81410        14.70200         3.94120
   H        4.82201        19.20746         4.66619
   H        5.32159        18.61765         6.95582
   H        5.26918        16.99765         8.80923
   H        4.27447        14.76856         8.48374
   H        3.32709        14.13870         6.29854
*
