# ORCA input file
# SCF done       -210.406561877707          0.000776021508
! CAM-B3LYP def2-SVP def2/J RIJCOSX Grid4 TightSCF
%maxcore 5000
%tddft
    Mode sTDDFT
    Ethresh 5.0
    maxcore 5000
end

%pal
  nprocs 6
  end
* xyz 0 1
   C       -1.09384         4.79472        -8.01023
   C       -1.68805         3.88241        -7.17733
   C       -2.58647         2.88916        -7.61765
   N       -3.32732         2.06866        -7.92628
   C       -1.39403         3.77240        -5.80395
   N       -1.14954         3.62298        -4.69239
   C       -1.16574         4.77449        -9.46758
   C       -0.06578         5.51885        -9.98629
   C        0.14816         5.64075       -11.32886
   C       -0.74915         5.02252       -12.22875
   C       -1.86003         4.29167       -11.71663
   C       -2.05351         4.17661       -10.32065
   C       -2.75116         3.68565       -12.62526
   C       -2.55466         3.79223       -13.97519
   C       -1.46021         4.51108       -14.47854
   C       -0.57672         5.11284       -13.62397
   C        0.70632         6.08899        -8.86892
   O        1.73185         6.72840        -8.91552
   C       -0.08032         5.76181        -7.64316
   C        0.18922         6.43049        -6.49157
   C       -0.62082         6.58139        -5.33831
   S        0.10211         7.03510        -3.82242
   C       -1.42645         7.07335        -3.01666
   C       -2.44435         6.78432        -3.91418
   C       -1.99081         6.50064        -5.20834
   C       -3.90848         6.83708        -3.62076
   F       -4.39505         5.69570        -3.09624
   F       -4.24483         7.81810        -2.76745
   F       -4.62383         7.05516        -4.73747
   C       -1.46179         7.36987        -1.60275
   C       -0.51693         8.21731        -1.07534
   C       -0.51123         8.49303         0.30594
   C        0.33863         9.27796         1.06867
   C        1.49163        10.07860         0.56530
   C        1.47742        11.53069         1.07786
   N        2.03753        12.40272         0.06281
   C        2.82103         9.37236         0.89410
   N        2.93701         8.17544         0.08386
   C       -0.09339         9.13771         2.44171
   C        0.40590         9.62226         3.59270
   C       -0.21257         9.31938         4.91172
   C       -1.43967         8.45669         4.84491
   C       -1.91820         7.96748         3.68736
   C       -1.27468         8.25814         2.46058
   C       -1.51121         7.86414         1.16039
   C       -2.46252         6.98979         0.58424
   C       -2.43471         6.74885        -0.75016
   C       -0.54960        10.57400         5.67413
   C       -0.77309        11.75427         5.09004
   C       -1.10088        12.96457         5.78826
   S       -1.29702        14.43659         4.89556
   C       -1.55364        15.36621         6.34010
   C       -1.52884        14.53477         7.44470
   C       -1.27702        13.18991         7.13305
   C       -1.88254        14.89186         8.85444
   F       -2.28243        16.15619         9.03908
   F       -2.91439        14.12444         9.27606
   F       -0.89151        14.66087         9.72290
   C       -1.76900        16.77565         6.21274
   C       -1.20657        17.72239         7.00165
   C       -1.46779        19.15256         6.99669
   C       -2.48709        19.78710         6.33941
   C       -2.71775        21.17850         6.39273
   N       -2.95109        22.30211         6.38765
   C       -3.44854        19.14564         5.52997
   N       -4.26350        18.68886         4.86297
   C       -0.49344        19.78167         7.87782
   C        0.34255        18.77209         8.43709
   C       -0.06019        17.45695         7.92289
   O        0.47682        16.39066         8.12381
   C        1.34793        19.06865         9.31238
   C        1.56532        20.41471         9.68041
   C        0.73789        21.43209         9.12163
   C       -0.29219        21.09508         8.21451
   C        0.96689        22.77294         9.49284
   C        1.96257        23.09478        10.37445
   C        2.77547        22.09225        10.92479
   C        2.58089        20.78079        10.58555
   H        0.99194         6.20251       -11.70111
   H       -2.90791         3.62561        -9.95954
   H       -3.59060         3.13072       -12.23284
   H       -3.24172         3.32245       -14.66301
   H       -1.32073         4.58579       -15.54660
   H        0.26788         5.66771       -14.00562
   H        1.12847         6.97510        -6.48613
   H       -2.65532         6.29883        -6.02976
   H        0.22153         8.67536        -1.71692
   H        1.42193        10.13201        -0.52432
   H        2.00802        11.59389         2.04373
   H        0.44218        11.84513         1.23988
   H        3.00560        12.16281        -0.12085
   H        2.00419        13.37110         0.35985
   H        2.86824         9.17777         1.98049
   H        3.65730        10.02677         0.63041
   H        2.17420         7.53787         0.28718
   H        3.80938         7.69449         0.27020
   H        1.28407        10.25157         3.61996
   H        0.54285         8.77984         5.50745
   H       -1.92293         8.24838         5.78671
   H       -2.79839         7.34144         3.67919
   H       -3.19130         6.50349         1.21475
   H       -3.12580         6.04360        -1.17953
   H       -0.64587        10.46086         6.74368
   H       -0.69708        11.84456         4.01452
   H       -1.23293        12.42277         7.88405
   H       -2.38852        17.07094         5.37514
   H        1.96468        18.28298         9.72265
   H       -0.89757        21.88845         7.80579
   H        0.33766        23.54108         9.06789
   H        2.12949        24.12439        10.65299
   H        3.55697        22.36462        11.61770
   H        3.20359        20.00456        11.00518
*
