# ORCA input file
# SCF done       -199.592087972862          0.000664696147
! CAM-B3LYP def2-SVP def2/J RIJCOSX Grid4 TightSCF
%maxcore 5000
%tddft
    Mode sTDDFT
    Ethresh 5.0
    maxcore 5000
end

%pal
  nprocs 6
  end
* xyz 0 1
   C        4.59203         3.06890        -0.33887
   C        5.03419         2.51532        -1.51468
   C        6.25578         1.82494        -1.65100
   N        7.23552         1.25367        -1.83251
   C        4.34493         2.53510        -2.74423
   N        3.84684         2.50050        -3.77907
   C        5.30387         3.01407         0.93623
   C        4.50506         3.65232         1.92825
   C        4.91060         3.75920         3.22659
   C        6.16383         3.22412         3.60189
   C        6.97057         2.58622         2.61686
   C        6.52035         2.48882         1.27887
   C        8.21975         2.05898         3.00056
   C        8.65360         2.15631         4.29509
   C        7.85831         2.78459         5.26427
   C        6.63942         3.30696         4.92488
   C        3.26541         4.13559         1.30352
   O        2.34847         4.71739         1.86525
   C        3.35530         3.78596        -0.11446
   C        2.42723         4.12911        -1.07017
   C        1.22971         4.83298        -0.93774
   S        0.50076         5.47562         0.52494
   C       -0.85569         6.13872        -0.33900
   C       -0.76614         5.87182        -1.71422
   C        0.40475         5.14129        -2.02418
   S        0.54577         4.78233        -3.70521
   C       -0.97696         5.58913        -3.99318
   C       -1.48093         5.62814        -5.36740
   O       -0.89502         5.16676        -6.31454
   O       -2.66849         6.25140        -5.43712
   C       -3.26815         6.32564        -6.73274
   C       -3.97111         5.02695        -7.09999
   C       -1.54988         6.10760        -2.86774
   C       -1.83979         6.86427         0.36531
   N       -2.80880         7.63453        -0.24774
   C       -3.56091         8.22315         0.71764
   C       -4.61916         9.09332         0.93674
   C       -4.77531         9.17076         2.33040
   N       -3.83647         8.36167         2.94001
   C       -3.07200         7.78291         1.97983
   C       -1.99105         6.94178         1.75899
   C       -5.69608         9.92011         3.09553
   C       -6.56575        10.83721         2.59332
   C       -7.46877        11.58666         3.37258
   S       -7.70911        11.35351         5.08254
   C       -8.94874        12.59108         5.18948
   C       -9.10008        13.21163         3.94139
   C       -8.28862        12.62197         2.94114
   S       -8.46249        13.39408         1.40265
   C       -9.56243        14.54184         2.11947
   C      -10.10266        15.58610         1.24387
   O       -9.84878        15.66795         0.06637
   O      -10.90761        16.42078         1.91011
   C      -11.48844        17.48590         1.15566
   C      -10.52646        18.65619         1.00979
   C       -9.79735        14.33766         3.44823
   C       -9.56200        12.81282         6.42701
   C      -10.80797        13.35453         6.64559
   C      -11.33792        13.75770         7.92674
   C      -10.62835        13.91075         9.09373
   C      -11.19788        14.32026        10.31546
   N      -11.60297        14.63834        11.34221
   C       -9.24080        13.70713         9.22895
   N       -8.11394        13.57636         9.41213
   C      -12.75563        14.05800         7.75129
   C      -13.09313        13.84882         6.38414
   C      -11.90088        13.38778         5.64906
   O      -11.86580        13.01888         4.49096
   C      -14.35467        14.06086         5.91080
   C      -15.35808        14.50734         6.80096
   C      -15.03119        14.71135         8.17196
   C      -13.71405        14.47853         8.63340
   C      -16.04096        15.14902         9.05220
   C      -17.31264        15.37842         8.60121
   C      -17.63251        15.18035         7.25023
   C      -16.67558        14.75421         6.36918
   H        4.28512         4.24792         3.95890
   H        7.15709         2.00110         0.55831
   H        8.82868         1.57579         2.25056
   H        9.61269         1.74939         4.57870
   H        8.21569         2.85316         6.28094
   H        6.02241         3.79233         5.66710
   H        2.63432         3.83963        -2.09398
   H       -2.49109         6.55525        -7.46900
   H       -3.97597         7.15435        -6.66580
   H       -3.24513         4.22144        -7.17747
   H       -4.46991         5.14324        -8.05769
   H       -4.70826         4.76888        -6.34316
   H       -2.50073         6.60671        -2.90129
   H       -2.86822         7.79767        -1.23703
   H       -5.21601         9.60617         0.21087
   H       -3.73435         8.25712         3.93495
   H       -1.37567         6.42989         2.47063
   H       -5.68503         9.75732         4.16674
   H       -6.58170        11.05277         1.53444
   H      -12.37911        17.77375         1.71777
   H      -11.77405        17.10632         0.16911
   H      -10.20238        19.00207         1.98852
   H      -11.02255        19.47112         0.49068
   H       -9.65533        18.35153         0.43497
   H      -10.42532        14.98564         4.02792
   H       -9.00008        12.46806         7.28687
   H      -14.58447        13.89478         4.86863
   H      -13.49982        14.63739         9.67832
   H      -15.78944        15.30136        10.09162
   H      -18.07899        15.71424         9.28374
   H      -18.64062        15.36632         6.91071
   H      -16.91617        14.59889         5.32742
*
