# ORCA input file
# SCF done       -213.381557291966          0.000751392490
! CAM-B3LYP def2-SVP def2/J RIJCOSX Grid4 TightSCF
%maxcore 5000
%tddft
    Mode sTDDFT
    Ethresh 5.0
    maxcore 5000
end

%pal
  nprocs 6
  end
* xyz 0 1
   C        0.05373         6.78146        10.59439
   C        0.28530         5.43452        10.73258
   C        1.10330         4.87190        11.73391
   N        1.75314         4.34889        12.52331
   C       -0.24087         4.41666         9.91213
   N       -0.62582         3.52773         9.29296
   C        0.61083         7.81914        11.45871
   C        0.17776         9.08197        10.98667
   C        0.52563        10.26301        11.59378
   C        1.34059        10.19613        12.72906
   C        1.76895         8.93122        13.19517
   C        1.41844         7.73647        12.57721
   S        2.76308         9.07624        14.61334
   C        2.58924        10.81026        14.56216
   C        1.82879        11.26003        13.53600
  Br        3.42791        11.86391        15.86790
   C       -0.67564         8.88646         9.79942
   O       -1.19568         9.76868         9.13930
   C       -0.76072         7.43846         9.59298
   C       -1.51173         6.79638         8.63652
   C       -2.35533         7.30224         7.64351
   S       -2.65388         8.98746         7.30657
   C       -3.75398         8.58119         6.03252
   C       -3.87177         7.20054         5.85979
   C       -3.09119         6.48508         6.76396
   C       -3.02791         4.99013         6.77118
   C       -4.14300         4.37992         5.92645
   C       -4.23659         5.09078         4.56927
   N       -5.14214         4.46815         3.62027
   C       -4.69062         6.53449         4.80098
   C       -4.36913         9.67036         5.35082
   C       -5.49033         9.65538         4.59727
   C       -6.00384        10.85025         3.99870
   C       -7.17464        10.99756         3.35448
   C       -8.21564         9.94870         3.16174
   C       -7.56601        12.35810         2.83808
   N       -8.33044        13.04581         3.86353
   C       -9.22782        13.99650         3.65095
   C       -9.48865        14.58218         2.42851
   C      -10.57767        15.40813         2.17070
   C      -11.00931        15.70101         0.83109
   C      -12.23173        16.28059         0.91133
   C      -12.57931        16.42847         2.33077
   O      -13.75670        16.97364         2.70976
   C      -14.57526        17.30895         1.68080
   C      -14.26226        17.16388         0.38486
   O      -13.07686        16.66694        -0.06380
   C      -11.56556        15.93018         3.09513
   C      -11.55107        15.84643         4.55328
   C      -10.82609        16.55626         5.45960
   C      -11.14237        16.06631         6.79167
   O      -10.56746        16.60210         7.90427
   C       -9.69380        17.61560         7.63216
   C       -9.39718        18.05819         6.40713
   O       -9.92850        17.56266         5.25014
   C      -12.03950        15.05131         6.69508
   C      -12.33986        14.87858         5.30302
   C      -13.14783        13.97897         4.65324
   C      -13.94708        12.95389         5.16225
   C      -14.69624        12.15038         4.32893
   C      -14.62244        12.12607         2.92537
   C      -15.84568        11.96293         2.12361
   O      -16.94398        11.61001         2.50591
   C      -15.47014        12.38478         0.74972
   C      -16.25596        12.61530        -0.33800
   C      -15.66478        13.13116        -1.51852
   C      -14.26517        13.39181        -1.54418
   C      -13.69192        13.93515        -2.70830
   C      -14.48650        14.19318        -3.79106
   C      -15.86161        13.93564        -3.79075
   C      -16.43466        13.41113        -2.66364
   F      -13.93696        14.71806        -4.90627
   C      -13.47000        13.11497        -0.40455
   C      -14.06771        12.62001         0.71816
   C      -13.52772        12.33728         2.04784
   C      -12.17654        12.13916         2.30108
   C      -11.61147        11.82731         3.54252
   N      -11.00300        11.56389         4.48580
   C      -11.16797        12.15177         1.33224
   N      -10.25080        12.12362         0.63361
   H        0.17737        11.20831        11.20814
   H        1.77075         6.79948        12.97439
   H        1.61866        12.29828        13.35468
   H       -1.46272         5.71613         8.64806
   H       -3.09267         4.60533         7.79143
   H       -2.05673         4.67831         6.37263
   H       -5.09933         4.47904         6.44727
   H       -3.94612         3.31527         5.78255
   H       -3.24356         5.09954         4.10420
   H       -6.06904         4.37721         4.02437
   H       -4.82004         3.53844         3.37638
   H       -5.74314         6.52049         5.10403
   H       -4.62124         7.08944         3.86406
   H       -3.88482        10.62492         5.52307
   H       -6.04401         8.74258         4.45945
   H       -5.36401        11.72022         4.09376
   H       -7.90631         8.97989         3.53714
   H       -8.45785         9.85630         2.10339
   H       -9.13310        10.24644         3.67363
   H       -8.18659        12.25670         1.94215
   H       -6.67882        12.95251         2.59017
   H       -8.29474        12.62727         4.78275
   H       -9.81029        14.29220         4.51131
   H       -8.89913        14.29380         1.57055
   H      -10.47101        15.43825        -0.05710
   H      -15.51801        17.70827         2.01169
   H      -14.92907        17.43347        -0.41476
   H       -9.25652        18.03221         8.52248
   H       -8.70108        18.85909         6.23023
   H      -12.46150        14.48880         7.50267
   H      -13.19452        14.12232         3.58114
   H      -14.04850        12.84363         6.23142
   H      -15.50624        11.57105         4.75669
   H      -17.31824        12.42518        -0.30317
   H      -12.63425        14.14425        -2.74448
   H      -16.43937        14.15544        -4.67451
   H      -17.49456        13.20595        -2.63875
   H      -12.41177        13.32357        -0.44249
*
