# ORCA input file
# SCF done       -187.446865388807          0.000381559997
! CAM-B3LYP def2-SVP def2/J RIJCOSX Grid4 TightSCF
%maxcore 5000
%tddft
    Mode sTDDFT
    Ethresh 5.0
    maxcore 5000
end

%pal
  nprocs 6
  end
* xyz 0 1
   C       -5.79613        -3.03432        -5.44890
   C       -6.72411        -3.97113        -5.09246
   C       -7.13522        -5.03515        -5.92622
   N       -7.50691        -5.91968        -6.55537
   C       -7.39211        -4.03465        -3.84884
   N       -7.98332        -4.16588        -2.87425
   C       -5.09588        -2.96921        -6.72369
   C       -4.13435        -1.92946        -6.67356
   C       -3.31418        -1.62695        -7.73404
   C       -3.45664        -2.37654        -8.90544
   C       -4.42333        -3.41153        -8.94905
   C       -5.24602        -3.72326        -7.87557
   S       -4.43296        -4.21204       -10.49122
   C       -3.15788        -3.16139       -11.04878
   C       -2.74421        -2.25656       -10.12945
  Br       -2.49487        -3.35577       -12.79143
   C       -4.16483        -1.28838        -5.34429
   O       -3.36160        -0.50281        -4.90585
   C       -5.32578        -1.91488        -4.63252
   C       -5.82795        -1.49426        -3.45820
   C       -5.41774        -0.25647        -2.79633
   N       -5.26676        -0.30291        -1.47466
   C       -4.89446         0.82213        -0.88553
   C       -4.68172         1.99644        -1.58379
   C       -4.90666         1.95879        -2.96918
   N       -5.28490         0.81908        -3.55259
   C       -4.74440         3.07439        -3.86675
   C       -4.46520         4.34638        -3.51707
   C       -4.28602         5.40198        -4.45124
   S       -4.29929         5.10883        -6.16154
   C       -4.01763         6.79784        -6.51015
   C       -3.95748         7.54206        -5.32936
   C       -4.08548         6.75106        -4.18038
   C       -4.02808         7.31701        -2.79452
   C       -3.47217         8.73798        -2.80280
   C       -4.18809         9.57135        -3.87564
   N       -3.89505        10.99057        -3.85236
   C       -3.81507         9.02706        -5.25801
   C       -3.87862         7.15438        -7.86709
   C       -3.47543         8.36037        -8.37069
   C       -3.35951         8.62889        -9.73941
   C       -2.95743         9.84971       -10.23237
   C       -2.81287        10.23727       -11.58337
   C       -2.41536        11.53148       -11.75475
   C       -2.22434        12.23291       -10.54522
   S       -2.55577        11.20040        -9.18203
   C       -1.84300        13.55437       -10.36801
   C       -1.57402        14.52706       -11.34996
   C       -1.24457        15.74888       -10.83472
   C       -1.23598        15.79650        -9.42428
   S       -1.64983        14.23355        -8.76739
   C       -0.93645        16.89309        -8.63476
   C       -0.96095        16.85930        -7.24738
   C       -0.66127        17.86757        -6.35364
   C       -0.02483        19.14431        -6.51252
   C        0.88416        19.51228        -7.47948
   C        1.48259        20.78428        -7.55219
   N        1.98583        21.80965        -7.67721
   C        1.42040        18.64036        -8.44607
   N        1.93552        17.97082        -9.22501
   C       -0.34197        19.94108        -5.32539
   C       -0.98134        19.10434        -4.37756
   C       -1.15288        17.75765        -4.96432
   O       -1.62916        16.77680        -4.43152
   C       -1.36922        19.55190        -3.13953
   C       -1.12630        20.89401        -2.82480
   C       -0.50171        21.72441        -3.78303
   C       -0.09988        21.26847        -5.03401
   S       -0.30884        23.34808        -3.19326
   C       -1.05636        22.89233        -1.68527
   C       -1.43310        21.59373        -1.62501
  Br       -1.27042        24.17547        -0.33294
   H       -2.58861        -0.83202        -7.66177
   H       -5.96616        -4.51990        -7.95869
   H       -1.96824        -1.53427       -10.30570
   H       -6.59384        -2.05327        -2.93880
   H       -4.76361         0.76646         0.18779
   H       -4.35926         2.89265        -1.08112
   H       -4.86158         2.81852        -4.91124
   H       -4.37541         4.62201        -2.47540
   H       -3.41001         6.68013        -2.15707
   H       -5.03874         7.32316        -2.37265
   H       -2.40068         8.71789        -3.01846
   H       -3.61084         9.19140        -1.81858
   H       -5.27111         9.46836        -3.73273
   H       -2.89851        11.15524        -3.94875
   H       -4.19684        11.41075        -2.98112
   H       -2.77859         9.30964        -5.47205
   H       -4.45039         9.50634        -6.00434
   H       -4.08995         6.35989        -8.57303
   H       -3.20946         9.16541        -7.70472
   H       -3.60079         7.85129       -10.45196
   H       -3.00861         9.55055       -12.38799
   H       -2.25672        11.99443       -12.71187
   H       -1.63288        14.31022       -12.40140
   H       -1.00076        16.61397       -11.42491
   H       -0.70092        17.81000        -9.15381
   H       -1.34455        15.95448        -6.78325
   H       -1.84633        18.88957        -2.43430
   H        0.36968        21.94161        -5.73184
   H       -1.90818        21.14516        -0.77167
*
