# ORCA input file
# SCF done       -167.096818532595          0.000623458235
! CAM-B3LYP def2-SVP def2/J RIJCOSX Grid4 TightSCF
%maxcore 5000
%tddft
    Mode sTDDFT
    Ethresh 5.0
    maxcore 5000
end

%pal
  nprocs 6
  end
* xyz 0 1
   C       -8.82084        -1.09556        -3.93744
   C       -9.50173        -1.49031        -5.05250
   C       -9.54898        -2.82138        -5.52444
   N       -9.63051        -3.88491        -5.94647
   C      -10.26833        -0.63585        -5.87657
   N      -10.90983        -0.00928        -6.59212
   C       -8.03280        -1.94975        -3.06193
   C       -7.53888        -1.18112        -1.97608
   C       -6.75785        -1.72147        -0.98173
   C       -6.44706        -3.08191        -1.05986
   C       -6.94309        -3.84222        -2.14834
   C       -7.73152        -3.29822        -3.15298
   S       -6.44203        -5.50191        -2.04849
   C       -5.58646        -5.15933        -0.56815
   C       -5.66987        -3.86789        -0.16692
  Br       -4.67178        -6.53795         0.31162
   C       -7.99978         0.20962        -2.10884
   O       -7.82647         1.11987        -1.33132
   C       -8.76603         0.26014        -3.38776
   C       -9.27408         1.39686        -3.88166
   C       -9.08927         2.70616        -3.22517
   N      -10.09424         3.15481        -2.48261
   C       -9.94157         4.36343        -1.95782
   C       -8.81068         5.12549        -2.16437
   C       -7.79496         4.55322        -2.94615
   N       -7.95795         3.33709        -3.48029
   C       -6.55670         5.24623        -3.18201
   C       -5.58863         4.76145        -3.98480
   N       -4.41283         5.41611        -4.17802
   C       -3.44489         5.08548        -5.06724
   S       -3.42117         3.51190        -5.79660
   C       -1.94450         3.92203        -6.61495
   N       -1.37973         2.96441        -7.45807
   O       -0.34534         3.25188        -8.03470
   O       -1.97018         1.89987        -7.55562
   C       -1.50659         5.18839        -6.33613
   C       -2.36424         5.89338        -5.46875
   C       -2.12316         7.26378        -5.10794
   C       -3.04543         8.10680        -4.58852
   C       -2.83562         9.42272        -4.11051
   C       -3.74691         9.98316        -3.25677
   C       -3.74918        11.24876        -2.61362
   C       -4.73538        11.40942        -1.68754
   C       -5.55438        10.26805        -1.51905
   S       -5.10579         9.03009        -2.66453
   C       -6.50004         9.96426        -0.56302
   C       -7.04387        10.73503         0.48901
   C       -7.85969        10.03057         1.32035
   C       -7.97727         8.64982         0.99814
   S       -7.09298         8.31915        -0.47511
   C       -8.65966         7.69114         1.69810
   C       -8.57812         6.29745         1.46696
   S       -9.81488         5.20943         2.08749
   C       -9.05851         3.79071         1.49304
   C       -7.89010         4.10899         0.84345
   C       -7.62942         5.51677         0.83223
   O       -6.45033         5.76987         0.21764
   C       -5.97793         4.55483        -0.17910
   N       -4.77996         4.53502        -0.91534
   O       -4.32761         3.44555        -1.21506
   O       -4.27711         5.60032        -1.23042
   C       -6.79112         3.51078         0.17136
   H       -6.39438        -1.11214        -0.16918
   H       -8.08091        -3.91712        -3.96241
   H       -5.20243        -3.48461         0.72165
   H       -9.83947         1.41998        -4.80314
   H      -10.77075         4.71916        -1.35899
   H       -8.70178         6.11527        -1.75067
   H       -6.42386         6.19326        -2.67537
   H       -5.73646         3.83558        -4.52255
   H       -4.21159         6.17372        -3.52909
   H       -0.61120         5.59764        -6.76830
   H       -1.11706         7.61975        -5.28410
   H       -4.06826         7.77009        -4.49244
   H       -1.93241         9.96076        -4.35773
   H       -3.00737        11.99291        -2.84520
   H       -4.87253        12.29539        -1.09293
   H       -6.81210        11.77896         0.60516
   H       -8.35178        10.44218         2.18383
   H       -9.31263         8.01191         2.49732
   H       -9.50643         2.83154         1.64635
   H       -6.64219         2.47716        -0.06017
*
