# ORCA input file
# SCF done       -146.407403165687          0.000344275975
! CAM-B3LYP def2-SVP def2/J RIJCOSX Grid4 TightSCF
%maxcore 5000
%tddft
    Mode sTDDFT
    Ethresh 5.0
    maxcore 5000
end

%pal
  nprocs 6
  end
* xyz 0 1
   C        5.14919        -1.85076        -9.08207
   C        6.05089        -2.08048        -8.11691
   C        7.29885        -1.40828        -7.90145
   C        8.00636        -1.86819        -6.84446
   C        7.38490        -2.93418        -6.14007
   S        5.84345        -3.32857        -6.87806
   C        7.87252        -3.60957        -5.04520
   C        9.10242        -3.40917        -4.37492
   C        9.31099        -4.26662        -3.34046
   C        8.26449        -5.19910        -3.12004
   S        6.98407        -4.91851        -4.28878
   C        8.30239        -6.17777        -2.15928
   C        7.37507        -7.18964        -1.84246
   C        6.09895        -7.38815        -2.39690
   C        5.29640        -8.46132        -2.07099
   C        5.67459        -9.49071        -1.18433
   C        6.92772        -9.27461        -0.55283
   C        7.74588        -8.15445        -0.86722
   N        8.84602        -8.23138        -0.10725
   N        8.67691        -9.31380         0.60288
   N        7.56657        -9.96753         0.39424
   C        9.64618        -9.78647         1.54147
   C        4.86043       -10.62980        -1.02562
   C        5.16213       -11.85569        -0.47118
   C        4.30120       -12.98259        -0.50191
   C        4.86193       -14.14809        -0.06079
   C        6.19816       -13.99501         0.34791
   S        6.69646       -12.32253         0.22206
   C        7.14338       -14.92234         0.76118
   C        7.09812       -16.32190         0.88218
   C        8.29845       -16.88531         1.22096
   C        9.36041       -15.96374         1.38492
   S        8.74552       -14.33827         1.14547
   C       10.69294       -16.26433         1.56268
   C       11.76214       -15.34591         1.62693
   C       11.63762       -13.97453         1.90625
   C       12.66936       -13.07043         1.77361
   C       13.95873       -13.42514         1.34901
   C       14.15826       -14.82580         1.20261
   C       13.09274       -15.76154         1.34505
   N       13.59491       -16.97905         1.10587
   N       14.86041       -16.76387         0.85178
   N       15.25913       -15.51784         0.88501
   C       15.75610       -17.83628         0.54485
   C       15.00681       -12.52658         1.05584
   C       14.94789       -11.16631         0.87951
   C       16.04910       -10.33884         0.53844
   C       15.74244        -9.02941         0.32922
   C       14.37075        -8.72729         0.49290
   S       13.49406       -10.17825         0.94132
   C       13.72608        -7.52078         0.34493
   C       14.28996        -6.26597        -0.00944
   C       13.39570        -5.25297        -0.08102
   C       12.04504        -5.63145         0.21880
   S       11.99508        -7.36069         0.58187
   C       10.95327        -4.85287         0.24554
   H        5.31600        -1.08337        -9.81710
   H        4.24047        -2.41930        -9.15383
   H        7.61124        -0.61019        -8.55127
   H        8.96278        -1.48033        -6.54098
   H        9.79720        -2.64710        -4.67957
   H       10.19137        -4.27343        -2.72114
   H        9.21007        -6.20942        -1.56872
   H        5.72843        -6.67447        -3.11611
   H        4.33379        -8.54591        -2.55569
   H        9.23481       -10.67101         2.02156
   H        9.86131        -9.01209         2.27713
   H       10.57294       -10.03858         1.02512
   H        3.88045       -10.56460        -1.48594
   H        3.29447       -12.90229        -0.87513
   H        4.35310       -15.09589        -0.03596
   H        6.19809       -16.88125         0.69589
   H        8.45696       -17.94351         1.33656
   H       10.96522       -17.31158         1.54673
   H       10.69273       -13.60324         2.26787
   H       12.46930       -12.04094         2.02378
   H       16.60684       -17.81429         1.22628
   H       16.12324       -17.73560        -0.47769
   H       15.20964       -18.77005         0.65304
   H       15.97332       -12.98567         0.88925
   H       17.04017       -10.74899         0.45082
   H       16.46008        -8.27687         0.05477
   H       15.34366        -6.15916        -0.19911
   H       13.63802        -4.23527        -0.33208
   H       11.01925        -3.80245         0.02121
   H        9.98676        -5.24916         0.49779
*
