# ORCA input file
# SCF done       -167.875520568591          0.000318059195
! CAM-B3LYP def2-SVP def2/J RIJCOSX Grid4 TightSCF
%maxcore 5000
%tddft
    Mode sTDDFT
    Ethresh 5.0
    maxcore 5000
end

%pal
  nprocs 6
  end
* xyz 0 1
   C        6.07416        -5.33132         4.93355
   O        5.72257        -4.08718         4.58397
   C        6.44245        -3.71550         3.49760
   C        7.27801        -4.76418         3.15036
   C        7.03321        -5.79936         4.08000
   F        7.61715        -6.99400         4.12083
   F        8.14213        -4.79640         2.13975
   C        6.22789        -2.41910         2.94113
   C        6.88495        -1.93152         1.86549
   C        6.65429        -0.64690         1.30220
   C        5.70131         0.38020         1.73959
   N        5.69022         1.45336         1.00277
   C        6.62300         1.23887         0.02924
   C        7.25779        -0.07176         0.20413
   C        8.22149        -0.30137        -0.84221
   S        9.11616        -1.66847        -1.04926
   C        8.16568         0.89108        -1.65331
   C        7.15822         1.81324        -1.09480
   N        7.03215         2.92315        -1.87544
   C        7.84411         2.73629        -2.87496
   C        8.60157         1.48260        -2.82057
   C        9.57601         1.07846        -3.79532
   C        9.48324         1.52945        -5.09819
   C       10.42555         1.10585        -6.04941
   C       10.53546         1.38985        -7.40890
   C        9.59604         2.21471        -8.21599
   C       10.29993         3.36622        -8.96130
   N        9.40328         4.50296        -9.03266
   C        8.79507         1.31911        -9.18290
   N        7.90275         0.47361        -8.41602
   C       11.70274         0.68495        -7.88604
   C       12.27995         0.62633        -9.10154
   C       13.49362        -0.20387        -9.35243
   C       14.02070        -0.91781        -8.15292
   C       13.44775        -0.83241        -6.93787
   C       12.28628        -0.04672        -6.75141
   C       11.50325         0.21653        -5.64338
   C       11.58103        -0.21268        -4.29943
   C       10.64347         0.20517        -3.41080
   C       13.15370        -1.14448       -10.48724
   C       12.80036        -2.41914       -10.29754
   C       12.46868        -3.33927       -11.34185
   C       12.47789        -3.11816       -12.78876
   N       12.14117        -4.16097       -13.49649
   C       11.88637        -5.14839       -12.59172
   C       12.07876        -4.65264       -11.22129
   C       11.81310        -5.70195       -10.26863
   S       11.90070        -5.59200        -8.63107
   C       11.46820        -6.83797       -11.08419
   C       11.52208        -6.46938       -12.50934
   N       11.20876        -7.53602       -13.29743
   C       10.97313        -8.52103       -12.48083
   C       11.11500        -8.16993       -11.06495
   C       10.91392        -9.05716        -9.97672
   O       11.04992        -8.62289        -8.70558
   C       10.80999        -9.63942        -7.85848
   C       10.50872       -10.77225        -8.59832
   C       10.57376       -10.40438        -9.95016
   F       10.35518       -11.18457       -11.00731
   F       10.21487       -11.97449        -8.10397
   C       10.88039        -9.46096        -6.43452
   C       11.18224        -8.29990        -5.85599
   H        5.59434        -5.77804         5.78027
   H        5.47833        -1.83296         3.45258
   H        7.63524        -2.53224         1.36996
   H        5.04749         0.30747         2.59051
   H        7.94773         3.49123        -3.63488
   H        8.66945         2.17026        -5.40051
   H        8.87262         2.67676        -7.53942
   H       10.64149         3.01679        -9.95053
   H       11.18019         3.67935        -8.39232
   H        8.58109         4.27929        -9.58253
   H        9.85978         5.30155        -9.45733
   H        9.49776         0.75544        -9.82144
   H        8.17619         1.94756        -9.82986
   H        8.43270        -0.15443        -7.82074
   H        7.31685        -0.08543        -9.02499
   H       11.88155         1.15756        -9.95405
   H       14.28326         0.46787        -9.72569
   H       14.90068        -1.52127        -8.31547
   H       13.86263        -1.36155        -6.09299
   H       12.38273        -0.86629        -3.99096
   H       10.69286        -0.10947        -2.38127
   H       13.17593        -0.71378       -11.47812
   H       12.76076        -2.82397        -9.29423
   H       12.73275        -2.19684       -13.28229
   H       10.69895        -9.49188       -12.85267
   H       10.66564       -10.35048        -5.85947
   H       11.39305        -7.42267        -6.44391
   H       11.22431        -8.20121        -4.78621
*
