# ORCA input file
# SCF done       -190.370615309723          0.000921196746
! CAM-B3LYP def2-SVP def2/J RIJCOSX Grid4 TightSCF
%maxcore 5000
%tddft
    Mode sTDDFT
    Ethresh 5.0
    maxcore 5000
end

%pal
  nprocs 6
  end
* xyz 0 1
   C        8.26704        -2.77599         0.24762
   O        7.28263        -3.67188         0.30782
   C        7.65274        -4.75188        -0.42985
   C        8.89665        -4.52965        -0.96978
   C        9.30205        -3.24246        -0.52943
   C       10.58281        -2.60609        -0.89281
   O       11.35179        -3.08544        -1.67777
   O       10.85664        -1.43069        -0.29088
   C        6.74577        -5.85910        -0.50067
   C        6.96912        -6.97123        -1.22420
   C        6.04290        -8.06238        -1.36781
   C        5.79829        -8.65879        -2.56794
   C        4.66343        -9.54572        -2.42943
   C        4.07897       -10.26664        -3.47777
   N        3.60220       -10.86406        -4.33488
   C        4.25453        -9.53802        -1.12459
   C        5.14898        -8.69747        -0.37090
   C        5.27659        -8.68430         0.99670
   C        4.44242        -9.43153         1.97529
   C        4.70022        -8.90669         3.20962
   C        5.75607        -7.93056         3.08794
   C        6.13431        -7.83535         1.77451
   C        6.31141        -7.22194         4.16114
   N        6.75683        -6.63355         5.04072
   C        3.64072       -10.58296         1.70606
   C        2.62048       -11.00489         2.48691
   C        1.84225       -12.19885         2.30129
   C        0.85635       -12.50034         3.22656
   C        0.08197       -13.66331         3.09454
   C       -0.95299       -14.17624         3.88342
   C       -1.47655       -13.48584         5.10239
   C       -2.51712       -12.41228         4.70190
   N       -3.67198       -12.99579         4.03810
   C       -1.97613       -14.37902         6.25142
   N       -3.27200       -15.00956         6.02411
   C       -1.37638       -15.40348         3.25535
   C       -2.33657       -16.29287         3.58659
   C       -2.57726       -17.51279         2.77778
   C       -1.71341       -17.64720         1.56238
   C       -0.75798       -16.75234         1.24759
   C       -0.55132       -15.61359         2.06077
   C        0.32780       -14.54842         1.97028
   C        1.32951       -14.22031         1.03265
   C        2.05655       -13.08459         1.19678
   C       -2.40670       -18.77463         3.59622
   C       -1.72777       -18.83831         4.73800
   C       -1.48555       -20.08332         5.44127
   C       -1.09977       -21.23647         4.83978
   C       -0.85179       -22.24106         5.86064
   C       -0.38515       -23.53494         5.60263
   N       -0.01451       -24.59980         5.38341
   C       -1.13127       -21.70128         7.08255
   C       -1.59317       -20.34738         6.89121
   C       -2.12533       -19.52426         7.85293
   C       -2.37033       -19.85173         9.27971
   C       -2.65721       -18.68207         9.92482
   C       -2.68559       -17.61410         8.95392
   C       -2.41512       -18.12424         7.71078
   C       -2.97544       -16.27505         9.23926
   N       -3.21717       -15.17162         9.44935
   C       -2.44011       -21.15744         9.85143
   C       -2.36891       -21.41736        11.17790
   C       -2.47909       -22.73009        11.71175
   O       -2.61027       -23.79724        10.90142
   C       -2.67508       -24.91215        11.66788
   C       -2.58528       -24.56627        12.99650
   C       -2.45651       -23.15713        13.04271
   C       -2.33361       -22.27946        14.21471
   O       -2.28336       -21.07869        14.15065
   O       -2.27955       -22.89923        15.40931
   C       -2.81023       -26.17950        11.00047
   C       -2.89005       -27.35972        11.60946
   H        8.10886        -1.85774         0.78243
   H        9.47290        -5.17658        -1.59638
   H       10.17653        -1.15697         0.33550
   H        5.83077        -5.73783         0.06303
   H        7.84777        -7.01874        -1.85407
   H        6.29777        -8.45816        -3.49741
   H        3.39792       -10.05306        -0.73928
   H        4.27804        -9.21662         4.14684
   H        6.92756        -7.22409         1.39596
   H        3.93905       -11.17333         0.85303
   H        2.33526       -10.39354         3.33388
   H        0.69244       -11.83431         4.06249
   H       -0.63051       -12.92805         5.52362
   H       -2.00201       -11.66337         4.07739
   H       -2.87127       -11.91155         5.60815
   H       -3.38523       -13.45394         3.17902
   H       -4.34508       -12.27463         3.80355
   H       -1.99179       -13.75002         7.15415
   H       -1.23603       -15.17089         6.42517
   H       -3.87878       -14.34115         5.55203
   H       -3.69119       -15.23522         6.92040
   H       -2.95185       -16.13257         4.46666
   H       -3.63067       -17.48868         2.45528
   H       -1.87997       -18.52279         0.95333
   H       -0.14445       -16.88663         0.36844
   H        1.50898       -14.87359         0.19168
   H        2.81884       -12.84158         0.47376
   H       -2.85069       -19.66582         3.17483
   H       -1.28102       -17.94348         5.14942
   H       -0.93504       -21.39304         3.79014
   H       -0.97452       -22.18508         8.02534
   H       -2.89409       -18.55770        10.96401
   H       -2.39762       -17.55816         6.80264
   H       -2.61692       -21.98537         9.17988
   H       -2.20513       -20.64020        11.90778
   H       -2.61570       -25.25830        13.81518
   H       -2.32255       -23.86030        15.32738
   H       -2.83998       -26.11201         9.92168
   H       -2.85950       -27.45616        12.68100
   H       -2.98513       -28.27097        11.04706
*
