# ORCA input file
# SCF done       -225.288894412680          0.000818314846
! CAM-B3LYP def2-SVP def2/J RIJCOSX Grid4 TightSCF
%maxcore 5000
%tddft
    Mode sTDDFT
    Ethresh 5.0
    maxcore 5000
end

%pal
  nprocs 6
  end
* xyz 0 1
   C       11.91450        -9.82025         0.98292
   C       12.99968       -10.66332         0.41113
   O       13.82132       -11.29387         1.04095
   C       12.80672       -10.59864        -1.05049
   C       11.79084        -9.68907        -1.34467
   C       11.33580        -9.06615        -0.10483
   C       10.74037        -7.83485        -0.00819
   C       10.62795        -7.13166         1.20904
   N       10.56370        -6.50805         2.17089
   C       10.27803        -7.08874        -1.10970
   N        9.86871        -6.44456        -1.96742
   C       11.38829        -9.46819        -2.66741
   C       12.01915       -10.15775        -3.66997
   C       13.06515       -11.06991        -3.40932
   C       13.47786       -11.30725        -2.06564
   C       14.52223       -12.21949        -1.81115
   C       15.13576       -12.86820        -2.84687
   C       14.73386       -12.63783        -4.17250
   C       13.72163       -11.76039        -4.44848
   C       11.58691        -9.94602         2.29923
   C       10.39351        -9.60657         2.96936
   S        8.86982        -9.32729         2.12503
   C        8.06708        -9.09500         3.60718
   C        8.92300        -9.23763         4.71237
   C       10.22404        -9.54555         4.34852
   C        8.15043        -9.00771         5.96121
   O        8.53448        -9.05802         7.10258
   C        6.77643        -8.70759         5.46385
   C        6.76579        -8.77964         4.06439
   S        5.22172        -8.44370         3.41542
   C        4.57140        -8.19005         5.02715
   C        5.54242        -8.37544         6.00462
   C        3.20589        -7.82557         5.15144
   C        2.58485        -7.51811         6.31444
   C        1.21257        -7.11668         6.46200
   C        0.29753        -7.17127         5.43181
   C       -1.02527        -6.73156         5.62434
   C       -2.10957        -6.66646         4.75831
   C       -2.19893        -7.09607         3.33180
   C       -1.24941        -6.28084         2.43259
   N       -1.75744        -6.28184         1.07420
   C       -1.95697        -8.61098         3.20112
   N       -2.26133        -9.06816         1.85310
   C       -3.19507        -6.06969         5.49866
   C       -4.44014        -5.72461         5.12219
   C       -5.39100        -5.06826         6.06528
   C       -4.85570        -4.86725         7.44837
   C       -3.60684        -5.21588         7.80829
   C       -2.72760        -5.80344         6.86706
   C       -1.41183        -6.20893         6.93136
   C       -0.46242        -6.18847         7.98086
   C        0.79651        -6.63204         7.74972
   C       -6.66189        -5.87616         6.11776
   C       -7.81552        -5.47015         5.57946
   C       -9.04861        -6.19958         5.60005
   S      -10.40954        -5.54662         4.70718
   C      -11.38056        -6.86818         5.17628
   C      -10.68967        -7.76808         5.99195
   C       -9.36945        -7.38799         6.22827
   C      -11.59541        -8.88938         6.36621
   O      -11.35746        -9.83948         7.06803
   C      -12.86851        -8.54897         5.66949
   C      -12.70525        -7.34274         4.97475
   S      -14.11181        -6.88451         4.13327
   C      -14.94924        -8.32211         4.70374
   C      -14.13353        -9.09902         5.51665
   C      -16.26944        -8.55075         4.25388
   C      -17.06365        -9.58841         4.62732
   C      -18.38102        -9.80502         4.15343
   C      -18.99038        -9.38055         3.01076
   C      -20.48050        -9.41162         2.94638
   O      -21.21189        -9.98012         3.72800
   C      -20.84000        -8.58107         1.78392
   C      -19.67754        -8.19510         1.11705
   C      -18.52020        -8.80524         1.76976
   C      -17.30023        -8.99817         1.17434
   C      -16.26527        -9.78489         1.71765
   N      -15.39353       -10.43127         2.09174
   C      -16.94511        -8.49666        -0.09476
   N      -16.58371        -8.10019        -1.10985
   C      -19.74505        -7.36434        -0.00896
   C      -20.97522        -6.95101        -0.44979
   C      -22.17191        -7.34089         0.19024
   C      -22.11507        -8.17642         1.34368
   C      -23.31174        -8.55924         1.98316
   C      -24.51703        -8.13446         1.49617
   C      -24.57901        -7.31301         0.35891
   C      -23.43378        -6.92365        -0.27970
   H       10.58987        -8.77981        -2.89301
   H       11.71773       -10.00542        -4.69637
   H       14.82167       -12.38828        -0.78882
   H       15.93720       -13.56500        -2.65152
   H       15.23237       -13.16111        -4.97511
   H       13.41115       -11.58082        -5.46776
   H       12.32475       -10.46260         2.90658
   H       11.03488        -9.69407         5.03832
   H        5.35318        -8.27139         7.05661
   H        2.66123        -7.77710         4.21881
   H        3.16379        -7.54014         7.22805
   H        0.59001        -7.54979         4.46609
   H       -3.21036        -6.89173         2.96677
   H       -0.22812        -6.68459         2.52006
   H       -1.22843        -5.24375         2.78513
   H       -1.81644        -7.24441         0.75193
   H       -1.12827        -5.77570         0.46044
   H       -2.55493        -9.12275         3.97530
   H       -0.90630        -8.83818         3.39524
   H       -3.25202        -8.95255         1.66241
   H       -2.04203       -10.05421         1.75893
   H       -4.80902        -5.89897         4.12059
   H       -5.64116        -4.08365         5.64097
   H       -5.53966        -4.42072         8.15404
   H       -3.25673        -5.04392         8.81583
   H       -0.75200        -5.81651         8.95267
   H        1.53116        -6.61729         8.54194
   H       -6.58070        -6.82728         6.62180
   H       -7.85816        -4.51662         5.06750
   H       -8.67922        -7.94739         6.83161
   H      -14.44893       -10.02536         5.95873
   H      -16.66614        -7.80578         3.57532
   H      -16.71411       -10.26922         5.39006
   H      -19.04026       -10.35084         4.82311
   H      -18.84908        -7.04404        -0.51516
   H      -21.04433        -6.30703        -1.31465
   H      -23.25158        -9.19035         2.85573
   H      -25.43348        -8.42946         1.98503
   H      -25.54179        -6.98969        -0.00843
   H      -23.47873        -6.29197        -1.15515
*
