# ORCA input file
# SCF done       -163.158266891026          0.000574022681
! CAM-B3LYP def2-SVP def2/J RIJCOSX Grid4 TightSCF
%maxcore 5000
%tddft
    Mode sTDDFT
    Ethresh 5.0
    maxcore 5000
end

%pal
  nprocs 6
  end
* xyz 0 1
   C       -3.70910        -0.02078         0.06046
   C       -3.46417        -0.52258         1.31020
   C       -2.79734        -1.74104         1.47867
   C       -2.36682        -2.48802         0.39843
   C       -2.60953        -1.98573        -0.91255
   N       -2.17495        -2.66552        -1.99139
   C       -2.40604        -2.15086        -3.16913
   C       -3.08310        -0.92515        -3.32696
   N       -3.51085        -0.23743        -2.30393
   C       -3.28298        -0.74153        -1.07277
   C       -1.69199        -3.75021         0.58418
   C       -1.78370        -4.90241        -0.31693
   N       -1.08911        -5.93751         0.06299
   C       -0.48269        -5.56229         1.22159
   C       -0.87398        -4.18953         1.59672
   C       -0.15265        -3.78843         2.78443
   S       -0.17296        -2.30251         3.49542
   C        0.64413        -4.93707         3.13688
   C        0.42538        -6.00628         2.14447
   N        1.21768        -7.08243         2.40775
   C        1.92323        -6.74282         3.44788
   C        1.63905        -5.40680         3.97181
   C        2.29045        -4.83239         5.11675
   C        3.56123        -5.24433         5.47019
   C        4.21116        -4.65297         6.56555
   C        5.47888        -4.87050         7.09946
   C        6.45799        -5.89965         6.65866
   C        7.73283        -5.27462         6.06391
   N        7.40631        -4.55522         4.84505
   C        6.80918        -6.86301         7.80821
   N        7.55894        -8.00147         7.30221
   C        5.61950        -3.95907         8.21273
   C        6.64477        -3.70908         9.04892
   C        6.53424        -2.73066        10.16327
   C        5.21092        -2.03356        10.25536
   C        4.20633        -2.26722         9.39086
   C        4.36281        -3.20873         8.34680
   C        3.52265        -3.62476         7.33067
   C        2.21439        -3.24197         6.96143
   C        1.62359        -3.82868         5.88847
   C        6.83228        -3.37945        11.49459
   C        6.77297        -4.69939        11.69454
   C        7.08970        -5.36743        12.92016
   C        7.35099        -4.80056        14.24188
   N        7.65819        -5.68014        15.15661
   C        7.63954        -6.88727        14.52381
   C        7.27114        -6.71749        13.10805
   C        7.23904        -7.99309        12.44495
   S        6.69768        -8.30186        10.92441
   C        7.67494        -8.92823        13.45130
   C        7.86686        -8.22278        14.73809
   N        8.21079        -9.10222        15.71682
   C        8.23915       -10.27288        15.13905
   C        7.92661       -10.25100        13.71322
   C        7.96022       -11.38539        12.82188
   C        7.50780       -12.63182        13.20495
   C        7.50650       -13.71264        12.31515
   C        7.95896       -13.56952        11.03050
   C        8.46060       -12.32459        10.60470
   N        8.90756       -12.17700         9.33986
   C        9.38544       -11.01285         8.99718
   C        9.48923        -9.95112         9.91917
   N        9.04269       -10.05693        11.14106
   C        8.48542       -11.22481        11.50741
   H       -4.21604         0.91864        -0.09403
   H       -3.78359         0.02188         2.18612
   H       -2.62654        -2.11290         2.47674
   H       -2.04944        -2.71350        -4.02156
   H       -3.27112        -0.50845        -4.30747
   H       -2.37969        -4.93420        -1.21000
   H        2.61603        -7.44450         3.87933
   H        4.07711        -5.98491         4.87824
   H        5.99391        -6.49674         5.86577
   H        8.45857        -6.09065         5.92183
   H        8.15750        -4.55342         6.76517
   H        7.08407        -5.19873         4.12971
   H        8.22347        -4.07648         4.48428
   H        5.87670        -7.15244         8.31823
   H        7.44523        -6.36153         8.53920
   H        6.96991        -8.56288         6.69383
   H        7.83066        -8.59182         8.08180
   H        7.59797        -4.20967         8.95892
   H        7.31096        -1.96345        10.00633
   H        5.10125        -1.32861        11.06522
   H        3.26819        -1.73965         9.48315
   H        1.69503        -2.48693         7.53217
   H        0.62462        -3.54825         5.59737
   H        7.08469        -2.70354        12.29908
   H        6.50823        -5.35863        10.87716
   H        7.30022        -3.75655        14.49708
   H        8.50333       -11.15239        15.70061
   H        7.11082       -12.76692        14.20055
   H        7.12735       -14.66606        12.65201
   H        7.93906       -14.38208        10.32171
   H        9.72283       -10.90340         7.97511
   H        9.94989        -9.01033         9.64801
*
