# ORCA input file
# SCF done       -194.786117933553          0.000810005805
! CAM-B3LYP def2-SVP def2/J RIJCOSX Grid4 TightSCF
%maxcore 5000
%tddft
    Mode sTDDFT
    Ethresh 5.0
    maxcore 5000
end

%pal
  nprocs 6
  end
* xyz 0 1
   C        2.81518        -7.04555         1.27745
   S        3.98225        -8.18703         1.90384
   C        4.99440        -8.04992         0.42200
   O        5.97901        -8.69234         0.22134
   N        4.45808        -7.09229        -0.38816
   C        3.31429        -6.43163         0.02999
   O        2.88106        -5.45392        -0.52259
   C        5.11785        -6.73967        -1.62794
   C        1.66108        -6.74600         1.91084
   C        0.56872        -6.01318         1.34593
   N        0.22358        -6.12436         0.07632
   C       -0.89477        -5.37927        -0.06636
   C       -1.28663        -4.75422         1.20070
   C       -2.47639        -3.91480         1.01116
   O       -3.06093        -3.22990         1.83074
   C       -2.77548        -4.08810        -0.41939
   C       -1.78442        -4.99167        -1.04157
   N       -2.03533        -5.13620        -2.36499
   C       -3.09390        -4.39592        -2.59626
   C       -3.60624        -3.71079        -1.42527
   C       -0.34814        -5.15586         2.12437
   C       -0.17757        -4.80756         3.49107
   C       -1.08080        -4.04170         4.14449
   C       -1.00191        -3.55526         5.49020
   C       -2.10472        -2.89405         6.00013
   C       -2.07427        -2.35199         7.29246
   C       -3.02215        -1.62441         8.01355
   C       -4.38495        -1.20845         7.58419
   C       -4.32195        -0.32717         6.31406
   N       -5.48484         0.52541         6.26362
   C       -5.30259        -2.42901         7.38105
   N       -6.67532        -2.00062         7.17137
   C       -2.38871        -1.22995         9.24685
   C       -2.80793        -0.43412        10.25259
   C       -1.83369         0.06682        11.25214
   C       -0.56087        -0.71341        11.34813
   C       -0.17916        -1.56307        10.36800
   C       -1.02763        -1.79208         9.26561
   C       -0.85538        -2.47886         8.07520
   C        0.25207        -3.17169         7.54229
   C        0.17419        -3.69623         6.29209
   C       -1.27526         1.38467        10.73524
   C       -1.07214         1.62212         9.42904
   C       -0.61293         2.85167         8.88789
   N       -0.21542         3.88791         9.61390
   C        0.01404         4.88076         8.73667
   C       -0.29348         4.46247         7.35651
   C       -0.05812         5.57323         6.41568
   O       -0.24686         5.59756         5.21811
   C        0.43582         6.64180         7.29857
   C        0.45663         6.18367         8.70297
   N        0.91080         7.16294         9.51867
   C        1.17188         8.17666         8.72466
   C        0.90203         7.91891         7.32866
   C       -0.66576         3.14592         7.43595
   C       -1.05647         2.21511         6.42451
   C       -1.51198         2.60745         5.21413
   C       -1.95308         1.76969         4.14686
   C       -1.56792         0.51584         3.79028
   C       -1.97679        -0.08907         2.52508
   C       -3.20739         0.03373         1.94964
   C       -3.55376        -0.49700         0.69004
   N       -3.87132        -0.84492        -0.35587
   C       -4.27874         0.67343         2.60898
   N       -5.17716         1.14136         3.14938
   C       -0.86425        -0.90464         2.06757
   C        0.03086        -1.07225         3.14134
   C       -0.43276        -0.30018         4.30929
   O        0.01587        -0.32847         5.43519
   C        1.17553        -1.83374         2.98566
   C        1.44069        -2.38097         1.74125
   C        0.58875        -2.17876         0.65349
   C       -0.58672        -1.45033         0.82780
   C        0.96127        -2.69459        -0.69687
   H        6.13405        -6.39947        -1.42818
   H        4.53649        -5.94274        -2.08838
   H        5.15694        -7.60779        -2.28532
   H        1.50878        -7.13632         2.90958
   H       -3.50794        -4.33627        -3.58764
   H       -4.44699        -3.04722        -1.40420
   H        0.71460        -5.17215         3.98041
   H       -1.96685        -3.74151         3.60012
   H       -2.98440        -2.79073         5.38349
   H       -4.82999        -0.58524         8.36641
   H       -4.21636        -0.97601         5.43077
   H       -3.43346         0.31265         6.36222
   H       -6.31853        -0.05576         6.24039
   H       -5.47042         1.10647         5.43162
   H       -5.18523        -3.09899         8.25147
   H       -4.98879        -2.98307         6.49379
   H       -7.04714        -1.57883         8.01631
   H       -7.26225        -2.79171         6.93217
   H       -3.80087        -0.00881        10.27808
   H       -2.29557         0.22501        12.22896
   H        0.07921        -0.49481        12.18756
   H        0.77128        -2.07311        10.41937
   H        1.15444        -3.26371         8.12816
   H        1.02469        -4.21240         5.87500
   H       -1.00416         2.12862        11.46854
   H       -1.32435         0.86594         8.70071
   H        1.55010         9.09889         9.13063
   H        1.04994         8.61283         6.52494
   H       -1.00297         1.16349         6.66578
   H       -1.61043         3.66900         5.02295
   H       -2.63195         2.26818         3.46137
   H        1.84841        -1.97360         3.81811
   H        2.33508        -2.96830         1.59032
   H       -1.25363        -1.29702        -0.00722
   H        1.44012        -3.66907        -0.63529
   H        1.67467        -2.00852        -1.15697
   H        0.09270        -2.76281        -1.34805
*
