# ORCA input file
# SCF done       -188.875885558903          0.000318063765
! CAM-B3LYP def2-SVP def2/J RIJCOSX Grid4 TightSCF
%maxcore 5000
%tddft
    Mode sTDDFT
    Ethresh 5.0
    maxcore 5000
end

%pal
  nprocs 6
  end
* xyz 0 1
   C        1.25800         0.63121        -1.96542
   C        1.93580        -0.50864        -1.57238
   F        3.25728        -0.57925        -1.76138
   C        1.26172        -1.58148        -0.99552
   F        1.93456        -2.68397        -0.66562
   C       -0.12165        -1.53630        -0.82054
   C       -0.79400        -0.36967        -1.19533
   C       -0.10912         0.69659        -1.76184
   F       -0.77491         1.79997        -2.12092
   F       -2.11468        -0.27872        -1.00103
   C       -0.86145        -2.67954        -0.28365
   N       -0.59490        -3.18569         0.89063
   C       -1.53572        -4.15108         1.09715
   C       -2.46065        -4.22545        -0.03531
   C       -3.48054        -5.26195         0.19005
   O       -4.39502        -5.59433        -0.52821
   C       -3.09953        -5.79390         1.51843
   C       -1.90544        -5.08155         2.03173
   N       -1.54021        -5.57493         3.24295
   C       -2.40228        -6.52334         3.50066
   C       -3.40026        -6.71940         2.46070
   C       -2.02147        -3.30860        -0.95676
   C       -2.54405        -2.98748        -2.24295
   C       -1.80343        -2.43659        -3.22965
   C       -2.26282        -1.92794        -4.49080
   C       -1.36035        -1.21405        -5.25714
   C       -1.78105        -0.57892        -6.43497
   C       -1.08720         0.24452        -7.31924
   C        0.34165         0.64306        -7.18293
   C        1.12385         0.61062        -8.50859
   N        2.48861         0.19870        -8.24018
   C        0.44232         2.02653        -6.50486
   N        0.08894         1.90747        -5.10200
   C       -2.03787         0.67134        -8.31608
   C       -1.91946         1.48733        -9.38175
   C       -3.08642         1.80683       -10.25597
   C       -4.35087         1.09996        -9.89840
   C       -4.45393         0.27787        -8.83595
   C       -3.33473         0.04093        -8.00605
   C       -3.16624        -0.70759        -6.85665
   C       -4.05678        -1.48711        -6.08221
   C       -3.61703        -2.06920        -4.93684
   C       -3.24736         3.30532       -10.18755
   C       -3.97207         3.92503        -9.24491
   C       -4.08044         5.34934        -9.20046
   N       -3.54504         6.11654       -10.14023
   C       -3.83802         7.38314        -9.79445
   C       -4.61283         7.43150        -8.54275
   C       -4.91380         8.82858        -8.17888
   O       -5.51661         9.24126        -7.21244
   C       -4.29245         9.58874        -9.27629
   C       -3.64426         8.67047       -10.23642
   N       -3.06492         9.36359       -11.24489
   C       -3.30970        10.62517       -10.97747
   C       -4.07019        10.83691        -9.76421
   C       -4.77524         6.12764        -8.14931
   C       -5.42085         5.56161        -7.00701
   C       -6.05683         6.30238        -6.07782
   C       -6.71370         5.79912        -4.88970
   C       -6.54045         4.51653        -4.34913
   F       -5.71074         3.63429        -4.93175
   C       -7.19620         4.11866        -3.19230
   F       -6.99855         2.88240        -2.71752
   C       -8.05204         4.97265        -2.52119
   C       -8.23693         6.24478        -3.03350
   C       -7.58277         6.65173        -4.18748
   F       -7.80141         7.88562        -4.65058
   F       -9.06061         7.08918        -2.40251
   H        1.78078         1.45075        -2.42917
   H       -2.34029        -7.08058         4.41936
   H       -4.18648        -7.44790         2.48250
   H       -3.58870        -3.22465        -2.38647
   H       -0.74014        -2.31185        -3.06442
   H       -0.33670        -1.10699        -4.92801
   H        0.83395        -0.07190        -6.51761
   H        1.05837         1.59331        -9.00622
   H        0.68223        -0.13830        -9.17186
   H        2.96437         0.88395        -7.66356
   H        3.01258         0.09504        -9.10115
   H       -0.18402         2.74520        -7.06193
   H        1.47886         2.37341        -6.54997
   H       -0.87689         1.60928        -5.00706
   H        0.17405         2.80388        -4.63537
   H       -0.99196         1.98068        -9.63016
   H       -2.81966         1.55209       -11.29131
   H       -5.19871         1.30498       -10.53369
   H       -5.38889        -0.21110        -8.60496
   H       -5.08141        -1.60208        -6.40254
   H       -4.29537        -2.65763        -4.34020
   H       -2.72238         3.90640       -10.91568
   H       -4.49222         3.35009        -8.49163
   H       -2.95285        11.39783       -11.63624
   H       -4.37103        11.78877        -9.37375
   H       -5.37693         4.48684        -6.92592
   H       -6.11393         7.37579        -6.21072
   H       -8.55804         4.65713        -1.62436
*
