# ORCA input file
# SCF done       -184.757379042752          0.000493166796
! CAM-B3LYP def2-SVP def2/J RIJCOSX Grid4 TightSCF
%maxcore 5000
%tddft
    Mode sTDDFT
    Ethresh 5.0
    maxcore 5000
end

%pal
  nprocs 6
  end
* xyz 0 1
   C       -9.87431         8.08971        -2.93258
   C       -9.26464         8.76904        -3.95175
   C       -9.59083        10.09048        -4.32630
   N       -9.81582        11.15818        -4.68125
   C       -8.26594         8.23182        -4.79158
   N       -7.45639         7.84800        -5.50913
   C      -10.93342         8.60047        -2.07370
   C      -11.42587         7.54284        -1.26655
   C      -12.43478         7.71960        -0.35054
   C      -12.96955         9.00157        -0.20517
   C      -12.46788        10.05387        -1.01137
   C      -11.45918         9.87362        -1.94920
   S      -13.27567        11.54975        -0.66499
   C      -14.25380        10.77386         0.53037
   C      -13.99532         9.45500         0.67053
   C      -10.70076         6.30454        -1.58834
   O      -11.01435         5.17266        -1.29180
   C       -9.59022         6.72800        -2.50037
   C       -8.51431         5.96574        -2.81158
   C       -8.16472         4.77406        -2.10974
   C       -7.45077         3.60812        -2.65472
   N       -7.21921         2.67117        -1.78649
   C       -7.72759         3.12712        -0.60326
   C       -8.32482         4.46335        -0.78392
   C       -8.74884         4.98893         0.48962
   S       -9.09533         6.56704         0.81731
   C       -8.57335         3.89672         1.40276
   C       -7.87379         2.78539         0.71199
   N       -7.58828         1.78133         1.58893
   C       -8.04184         2.17831         2.73791
   C       -8.71158         3.48726         2.71019
   C       -9.38017         4.06468         3.81934
   S       -8.79079         3.76603         5.42865
   C      -10.02172         4.79836         6.10885
   C      -10.88905         5.26441         5.13071
   C      -10.52815         4.84489         3.83740
   C      -11.37713         5.13529         2.65043
   C      -12.82036         5.37054         3.08207
   C      -12.85216         6.47543         4.14432
   C      -14.27998         6.85953         4.43245
   O      -14.83502         6.75711         5.48689
   C      -12.13746         6.02308         5.41680
   C      -10.00558         5.00927         7.51424
   C       -9.61973         3.95178         8.46472
   N       -9.66049         4.30521         9.71060
   C      -10.02773         5.61776         9.70696
   C      -10.26869         6.09297         8.32273
   C      -10.52168         7.50957         8.34411
   S      -10.69022         8.56618         7.09353
   C      -10.47221         7.86324         9.74125
   C      -10.16809         6.67819        10.55685
   N      -10.05711         7.02218        11.87460
   C      -10.30020         8.29393        11.92751
   C      -10.56512         8.91674        10.61527
   C      -10.76135        10.29902        10.34735
   C      -11.28697        11.23386        11.17473
   C      -12.00236        11.11223        12.43143
   C      -12.80137        10.06194        12.79747
   C      -13.53811        10.02174        13.99969
   N      -14.13993         9.94691        14.97360
   C      -13.05601         8.95194        11.96309
   N      -13.34269         8.06604        11.29242
   C      -11.90685        12.39938        13.10547
   C      -11.36581        13.35062        12.19906
   C      -11.04410        12.68799        10.92369
   O      -10.62170        13.18109         9.90584
   C      -11.18995        14.67099        12.53888
   C      -11.55332        15.06807        13.82897
   C      -12.07932        14.10791        14.72919
   C      -12.26547        12.77412        14.38590
   S      -12.44655        14.82211        16.26592
   C      -11.91102        16.36703        15.70353
   C      -11.47316        16.35760        14.42535
   H      -12.79248         6.89008         0.23899
   H      -11.11150        10.70574        -2.53858
   H      -14.97476        11.36170         1.06465
   H      -14.50845         8.81386         1.36435
   H       -7.82884         6.27483        -3.59046
   H       -7.14802         3.49912        -3.68164
   H       -7.94369         1.56460         3.61706
   H      -11.31240         4.32075         1.92499
   H      -10.99694         6.03424         2.14834
   H      -13.23908         4.45306         3.50153
   H      -13.42486         5.65182         2.21842
   H      -12.35393         7.36046         3.73000
   H      -14.81284         7.24723         3.53952
   H      -12.81546         5.39930         6.00893
   H      -11.91227         6.90104         6.02851
   H       -9.34486         2.95085         8.17861
   H      -10.24380         8.82245        12.86349
   H      -10.39162        10.66003         9.39176
   H      -10.78464        15.37556        11.82941
   H      -12.66309        12.07538        15.10363
   H      -11.95704        17.20124        16.37630
   H      -11.10307        17.22460        13.90898
*
