# ORCA input file
# SCF done       -225.155892441792          0.000894622739
! CAM-B3LYP def2-SVP def2/J RIJCOSX Grid4 TightSCF
%maxcore 5000
%tddft
    Mode sTDDFT
    Ethresh 5.0
    maxcore 5000
end

%pal
  nprocs 6
  end
* xyz 0 1
   C       -0.09787        -2.86088        -8.79609
   C        1.06424        -2.12373        -8.96301
   C        2.06341        -2.13263        -8.00031
   C        1.94003        -2.90035        -6.85304
   C        0.78599        -3.64679        -6.67926
   C       -0.24809        -3.61222        -7.64108
   C       -1.35230        -4.44167        -7.18171
   C       -2.50709        -4.67963        -7.87647
   C       -2.80311        -4.14837        -9.15022
   N       -3.13225        -3.78987       -10.18989
   C       -3.55198        -5.52563        -7.46076
   N       -4.44149        -6.20863        -7.20700
   C       -1.00400        -4.91200        -5.84455
   C        0.40439        -4.58157        -5.63471
   C        1.27764        -5.25457        -4.82054
   C        0.93483        -6.40049        -4.07397
   N        0.73194        -7.38808        -3.52431
   C        2.64675        -4.94320        -4.71048
   N        3.76405        -4.71994        -4.56543
   C       -1.87113        -5.45955        -4.94268
   C       -1.64539        -5.51637        -3.52611
   C       -0.91070        -4.49975        -2.89351
   C       -0.51878        -4.57199        -1.57271
   C       -0.78115        -5.70923        -0.82231
   C       -1.55973        -6.70148        -1.38602
   C       -2.09423        -6.56192        -2.69499
   N       -2.89603        -7.64163        -2.97308
   C       -2.84372        -8.51489        -1.89431
   C       -2.02680        -7.96553        -0.88545
   C       -1.83174        -8.65399         0.30344
   C       -2.45474        -9.87643         0.46609
   C       -3.26981       -10.40468        -0.53127
   C       -3.48440        -9.73077        -1.71996
   C       -3.93056        -7.69610        -3.91352
   C       -4.75893        -6.67565        -4.15389
   C       -4.65071        -5.37822        -3.48490
   C       -4.60105        -4.23729        -4.23697
   C       -4.26010        -3.00857        -3.62905
   C       -4.00272        -1.76869        -4.18411
   C       -3.96878        -1.46545        -5.64461
   C       -4.93229        -0.33368        -6.03909
   N       -5.12620        -0.31619        -7.48223
   C       -2.52500        -1.16656        -6.08597
   N       -2.39454        -1.33112        -7.52008
   C       -3.63015        -0.89345        -3.09330
   C       -3.29669         0.41001        -3.05681
   C       -2.89695         1.08415        -1.78862
   C       -2.90174         0.19713        -0.57999
   C       -3.28401        -1.09246        -0.62499
   C       -3.65751        -1.68611        -1.85226
   C       -4.04936        -2.96646        -2.18935
   C       -4.23024        -4.14277        -1.42659
   C       -4.50482        -5.31153        -2.06103
   C       -3.80151         2.24990        -1.47046
   C       -3.35860         3.47026        -1.18341
   C       -4.17405         4.56233        -0.65245
   C       -5.15128         4.28538         0.30738
   C       -5.82721         5.28294         0.99128
   C       -5.53043         6.61768         0.77650
   C       -4.58798         6.92764        -0.18961
   C       -3.95333         5.91382        -0.93318
   N       -3.09384         6.49611        -1.87149
   C       -3.13939         7.88475        -1.69151
   C       -4.05333         8.18160        -0.65846
   C       -4.30552         9.49337        -0.29099
   C       -3.64845        10.50532        -0.96674
   C       -2.78141        10.21023        -2.01111
   C       -2.51783         8.90437        -2.39188
   C       -2.53578         5.78180        -2.87396
   C       -1.45294         6.06800        -3.65401
   C       -1.10384         5.12913        -4.64084
   C       -0.05439         5.07787        -5.52492
   C        0.30992         3.85190        -6.22076
   C       -0.47649         2.74132        -6.41690
   C       -1.81378         2.60577        -6.00259
   N       -2.90374         2.41123        -5.68843
   C       -0.06441         1.57678        -7.09336
   N        0.18720         0.58744        -7.62153
   C        1.67594         4.01644        -6.68910
   C        2.09551         5.33667        -6.40854
   C        3.37594         5.75114        -6.73496
   C        4.23178         4.84443        -7.34267
   C        3.81754         3.55113        -7.62787
   C        2.53837         3.12387        -7.30647
   C        0.97851         6.05801        -5.81397
   C        0.86801         7.42327        -5.75508
   C        1.91610         8.31766        -6.05623
   N        2.72864         9.10155        -6.26375
   C       -0.33369         8.11326        -5.51341
   N       -1.28981         8.73453        -5.37322
   H       -0.86968        -2.83415        -9.54609
   H        1.18635        -1.52385        -9.85157
   H        2.95157        -1.53637        -8.14522
   H        2.72216        -2.90286        -6.11053
   H       -2.80043        -5.85980        -5.31710
   H       -0.66048        -3.61957        -3.46921
   H        0.02933        -3.75070        -1.13624
   H       -0.39860        -5.81358         0.18094
   H       -1.20464        -8.24246         1.07940
   H       -2.31220       -10.43304         1.38019
   H       -3.74661       -11.36049        -0.37302
   H       -4.12406       -10.14679        -2.48279
   H       -4.04350        -8.64835        -4.41333
   H       -5.48393        -6.76829        -4.94874
   H       -4.76216        -4.28669        -5.30362
   H       -4.28109        -2.36352        -6.18858
   H       -4.51060         0.63336        -5.76092
   H       -5.87432        -0.47005        -5.47968
   H       -5.58474        -1.16846        -7.78950
   H       -5.71089         0.46769        -7.75028
   H       -1.84491        -1.87989        -5.59918
   H       -2.24611        -0.16206        -5.73117
   H       -3.16067        -0.83231        -7.96948
   H       -1.52217        -0.91627        -7.83524
   H       -3.29957         1.03189        -3.94057
   H       -1.87979         1.48089        -1.93150
   H       -2.60327         0.66548         0.34601
   H       -3.28931        -1.69686         0.27090
   H       -4.13257        -4.10595        -0.35154
   H       -4.64836        -6.21825        -1.49076
   H       -4.85493         2.01342        -1.42862
   H       -2.29734         3.68452        -1.26147
   H       -5.35013         3.25221         0.54769
   H       -6.56922         5.00918         1.72567
   H       -6.01477         7.39639         1.34374
   H       -5.00502         9.71422         0.50028
   H       -3.82283        11.53485        -0.69381
   H       -2.30170        11.01332        -2.54870
   H       -1.87846         8.72344        -3.23834
   H       -3.04451         4.84028        -3.05601
   H       -0.84856         6.94033        -3.47994
   H       -1.73746         4.25249        -4.63781
   H        3.71389         6.75090        -6.51624
   H        5.23442         5.15260        -7.59637
   H        4.50086         2.86478        -8.10417
   H        2.23169         2.11514        -7.53073
*
