# ORCA input file
# SCF done       -200.543646687144          0.000520671701
! CAM-B3LYP def2-SVP def2/J RIJCOSX Grid4 TightSCF
%maxcore 5000
%tddft
    Mode sTDDFT
    Ethresh 5.0
    maxcore 5000
end

%pal
  nprocs 6
  end
* xyz 0 1
   C       -3.69506        -1.06744        -0.54691
   F       -4.97008        -0.96323        -0.92931
   C       -3.11288        -0.05730         0.21412
   F       -3.82015         1.02110         0.55319
   C       -1.79016        -0.18768         0.62714
   F       -1.22504         0.77099         1.36406
   C       -1.06293        -1.31597         0.26907
   F        0.21006        -1.41231         0.66859
   C       -1.61560        -2.33636        -0.50896
   C       -2.95144        -2.18724        -0.89354
   F       -3.55142        -3.16270        -1.58923
   C       -0.84207        -3.51988        -0.85938
   C       -0.11568        -4.27628         0.01076
   C        0.39136        -5.43007        -0.70026
   C        1.20066        -6.42235        -0.13532
   N        1.84921        -7.24611         0.33342
   C       -0.05988        -5.38484        -1.99316
   C       -0.83524        -4.18616        -2.15917
   C       -1.31610        -3.68466        -3.35226
   C       -1.53652        -4.44750        -4.60785
   C       -1.69575        -3.53110        -5.61559
   C       -1.65741        -2.21658        -5.04473
   C       -1.47639        -2.31337        -3.67798
   C       -1.78121        -1.02776        -5.77527
   N       -1.88280        -0.05821        -6.38178
   C       -1.70794        -5.84844        -4.73432
   C       -2.07020        -6.68227        -3.72421
   C       -2.18490        -8.10789        -3.79213
   C       -1.77244        -8.84806        -4.88932
   C       -1.84701       -10.24655        -4.86386
   C       -1.46549       -11.19796        -5.81368
   C       -0.83589       -10.91068        -7.12844
   C        0.61621       -11.43948        -7.17072
   N        1.36870       -10.65360        -8.11851
   C       -1.65981       -11.44372        -8.31628
   N       -1.11918       -10.93212        -9.56295
   C       -1.70667       -12.49256        -5.22211
   C       -1.48357       -13.74507        -5.66956
   C       -1.70975       -14.93729        -4.81003
   C       -2.32242       -14.63899        -3.47717
   C       -2.58729       -13.38721        -3.06004
   C       -2.26802       -12.27999        -3.88027
   C       -2.35648       -10.91521        -3.67829
   C       -2.79411       -10.14251        -2.57960
   C       -2.70553        -8.78955        -2.64243
   C       -2.52574       -16.01308        -5.49087
   C       -3.61769       -15.76858        -6.21609
   C       -4.43333       -16.81806        -6.78171
   C       -4.61588       -18.05782        -6.25311
   C       -5.58274       -18.77528        -7.06218
   C       -5.98312       -20.09569        -6.82679
   N       -6.31589       -21.17479        -6.61755
   C       -6.02245       -17.95153        -8.06100
   C       -5.31474       -16.70283        -7.95843
   C       -5.36678       -15.67149        -8.86275
   C       -6.37818       -15.46874        -9.92763
   C       -5.92874       -14.46432       -10.73113
   C       -4.66345       -13.99181       -10.21569
   C       -4.35054       -14.68300        -9.07278
   C       -3.89213       -12.98538       -10.80225
   N       -3.25314       -12.15651       -11.27770
   C       -7.64666       -16.13280       -10.00324
   C       -8.34690       -16.23629       -11.14954
   C       -9.60887       -16.89340       -11.38894
   C      -10.58912       -17.12012       -10.46488
   O      -11.73926       -17.75622       -10.74644
   C      -11.97280       -18.23371       -11.99342
   C      -13.16254       -18.92880       -12.21090
   C      -13.44041       -19.41745       -13.46878
   C      -12.54718       -19.22050       -14.51939
   C      -11.37478       -18.53269       -14.30578
   C      -11.06934       -18.03087       -13.03805
   C       -9.82107       -17.29617       -12.79629
   O       -9.02546       -17.04265       -13.68432
   C      -10.57542       -16.66267        -9.04153
   H        0.04878        -4.08526         1.05454
   H        0.21125        -6.06098        -2.78025
   H       -1.88258        -3.73851        -6.65248
   H       -1.34069        -1.48521        -3.00832
   H       -1.61140        -6.23225        -5.74200
   H       -2.31271        -6.24322        -2.76519
   H       -1.36873        -8.35429        -5.75962
   H       -0.76227        -9.82554        -7.24747
   H        0.59739       -12.51751        -7.40111
   H        1.07334       -11.31668        -6.18202
   H        0.92768       -10.72798        -9.03213
   H        2.33137       -10.96217        -8.17645
   H       -2.71947       -11.17630        -8.15630
   H       -1.59971       -12.53455        -8.35585
   H       -1.26840        -9.92894        -9.61772
   H       -1.60810       -11.34938       -10.35172
   H       -1.09306       -13.94115        -6.65782
   H       -0.71118       -15.36762        -4.62612
   H       -2.54912       -15.49482        -2.86010
   H       -3.02868       -13.21081        -2.09019
   H       -3.18121       -10.63402        -1.69967
   H       -3.02550        -8.18656        -1.80521
   H       -2.20456       -17.03082        -5.32507
   H       -3.93621       -14.74785        -6.38243
   H       -4.16633       -18.46095        -5.36528
   H       -6.68173       -18.23154        -8.85913
   H       -6.42307       -14.04158       -11.58455
   H       -3.44259       -14.58756        -8.51040
   H       -8.01194       -16.56569        -9.08614
   H       -7.89104       -15.87900       -12.06478
   H      -13.84257       -19.07021       -11.38580
   H      -14.35948       -19.95711       -13.63926
   H      -12.77774       -19.60880       -15.49935
   H      -10.66168       -18.36219       -15.09791
   H      -10.09606       -15.69128        -8.95328
   H      -10.04681       -17.37777        -8.41160
   H      -11.60164       -16.60095        -8.68560
*
