# ORCA input file
# SCF done       -258.145719946388          0.000499513710
! CAM-B3LYP def2-SVP def2/J RIJCOSX Grid4 TightSCF
%maxcore 5000
%tddft
    Mode sTDDFT
    Ethresh 5.0
    maxcore 5000
end

%pal
  nprocs 6
  end
* xyz 0 1
   C        2.91892        -7.10218        -3.78100
   O        3.29110        -6.90780        -2.64751
   C        3.71165        -6.86759        -5.00769
   C        2.93517        -7.14889        -6.14660
   C        3.48881        -6.99926        -7.40931
   C        4.80493        -6.56704        -7.51128
   C        5.56587        -6.28229        -6.37374
   C        5.01760        -6.43434        -5.10724
  Br        7.35072        -5.68526        -6.54398
  Br        5.56426        -6.36746        -9.23123
   C        1.61117        -7.57124        -5.71746
   C        0.52305        -7.76620        -6.52643
   C        0.56101        -7.65889        -7.93288
   N        0.54775        -7.59776        -9.07860
   C       -0.77427        -8.07193        -6.06504
   N       -1.85831        -8.30333        -5.76402
   C        1.62448        -7.65817        -4.26335
   C        0.71939        -8.35715        -3.53445
   C        0.64594        -8.48401        -2.10085
   C        0.23705        -9.71085        -1.54480
   C       -0.11781       -10.88329        -2.40575
   O        0.58973       -11.86597        -2.46966
   C       -1.40012       -10.78194        -3.11223
   C       -2.35825        -9.82637        -2.87918
   S       -3.77434       -10.08318        -3.78907
   C       -3.10926       -11.50516        -4.49230
   C       -1.84709       -11.75847        -4.06052
   C       -1.03209       -12.93229        -4.48988
   O       -1.42298       -14.06548        -4.33408
   C        0.26262       -12.60281        -5.13245
   C        0.44335       -11.41619        -5.83817
   C        1.65822       -11.15296        -6.44336
   C        2.70257       -12.05676        -6.33243
   C        2.52511       -13.24092        -5.63503
   C        1.30640       -13.52072        -5.04873
   C        0.24005        -9.87189        -0.16783
   C        0.58950        -8.82415         0.66418
   C        0.94428        -7.58277         0.13401
   C        0.96633        -7.42884        -1.24697
   C        1.31277        -6.46497         1.01036
   C        0.63707        -6.23721         2.18089
   C        1.01161        -5.16028         3.01157
   C        0.50228        -4.72643         4.22911
   C       -0.59397        -5.38376         4.98990
   C       -0.02340        -6.21370         6.15637
   N        0.77781        -7.31259         5.64696
   C       -1.66993        -4.42182         5.52622
   N       -2.87143        -5.18563         5.81687
   C        1.29742        -3.58766         4.63021
   C        1.26079        -2.79678         5.72052
   C        2.22360        -1.67722         5.91150
   C        3.20447        -1.49455         4.80083
   C        3.22841        -2.28903         3.71269
   C        2.30247        -3.34705         3.58335
   C        2.11816        -4.31203         2.60579
   C        2.79464        -4.57431         1.39602
   C        2.39772        -5.62098         0.62237
   C        2.95690        -1.90070         7.21342
   C        2.92352        -1.03514         8.21972
   C        3.53828        -1.22217         9.53231
   C        3.98037        -0.11700        10.27896
   C        4.06389         1.21991         9.63517
   O        3.69065         2.24687        10.15354
   C        4.67801         1.18277         8.28426
   C        5.79833         0.47285         7.96091
   S        6.25684         0.68406         6.32554
   C        4.90142         1.71409         6.04601
   C        4.16543         1.91135         7.16780
   C        2.84972         2.62248         7.24740
   O        1.83287         2.01549         6.97878
   C        2.88136         4.01912         7.69925
   C        1.67210         4.67346         7.94052
   C        1.66642         5.97892         8.38782
   C        2.86559         6.64340         8.59528
   C        4.07078         6.00074         8.35516
   C        4.08393         4.69342         7.91101
   C        4.36881        -0.28004        11.60340
   C        4.34522        -1.52683        12.19444
   C        3.91924        -2.64126        11.46576
   C        3.55259        -2.47288        10.12896
   C        3.84965        -3.94017        12.09660
   C        2.98904        -4.94868        11.82490
   C        3.29639        -6.33016        12.29655
   O        4.10032        -6.65261        13.13670
   C        2.45093        -7.21091        11.46143
   C        1.60819        -6.42541        10.64901
   C        1.82102        -5.02068        10.96113
   C        0.95900        -3.99324        10.66521
   C        1.01894        -2.72922        11.28902
   N        0.96773        -1.71831        11.82979
   C       -0.08554        -4.08451         9.72887
   N       -0.89678        -4.08616         8.91514
   C        0.73030        -7.04221         9.76981
   C        0.71469        -8.42899         9.71237
   C        1.54773        -9.20171        10.52645
   C        2.42382        -8.58915        11.41351
  Br        1.49520       -11.09050        10.42866
  Br       -0.46267        -9.27261         8.49769
   H        2.93251        -7.21256        -8.30794
   H        5.59598        -6.22032        -4.22184
   H       -0.00356        -8.94835        -4.08248
   H       -2.29710        -8.99456        -2.20458
   H       -3.67872       -12.06749        -5.20522
   H       -0.37936       -10.72152        -5.94043
   H        1.79472       -10.24597        -7.01559
   H        3.65252       -11.83962        -6.79883
   H        3.33809       -13.94684        -5.55510
   H        1.14436       -14.43754        -4.50354
   H       -0.03282       -10.83038         0.24814
   H        0.60754        -8.97198         1.73338
   H        1.19376        -6.46388        -1.66879
   H       -0.19433        -6.86690         2.46016
   H       -1.09852        -6.08501         4.31677
   H       -0.88104        -6.53566         6.76684
   H        0.62591        -5.57754         6.76489
   H        0.18381        -7.97553         5.16018
   H        1.22627        -7.81141         6.40668
   H       -1.82861        -3.61276         4.79392
   H       -1.33942        -3.97720         6.46529
   H       -3.34410        -5.45597         4.96093
   H       -3.51652        -4.64072         6.37567
   H        0.55143        -2.94950         6.52117
   H        1.64864        -0.74532         6.02357
   H        3.90692        -0.68458         4.92278
   H        3.95388        -2.12815         2.92830
   H        3.62283        -3.94829         1.09817
   H        2.92016        -5.85376        -0.29312
   H        3.53802        -2.81174         7.26110
   H        2.35238        -0.12238         8.10761
   H        6.39346        -0.14059         8.60824
   H        4.73414         2.12067         5.06835
   H        0.75170         4.13297         7.77715
   H        0.72987         6.48086         8.57954
   H        2.86208         7.66404         8.94841
   H        5.00177         6.52231         8.52066
   H        5.02334         4.19270         7.72899
   H        4.69027         0.58685        12.16079
   H        4.61910        -1.64202        13.23184
   H        3.25645        -3.33121         9.54472
   H        4.60100        -4.15640        12.84895
   H        0.07122        -6.47637         9.13092
   H        3.06846        -9.17514        12.05001
*
