# ORCA input file
# SCF done       -203.693526674294          0.000994450484
! CAM-B3LYP def2-SVP def2/J RIJCOSX Grid4 TightSCF
%maxcore 5000
%tddft
    Mode sTDDFT
    Ethresh 5.0
    maxcore 5000
end

%pal
  nprocs 6
  end
* xyz 0 1
   C        0.59278        -9.17271        -6.96099
   O        1.32115        -9.20503        -5.98108
   C        0.94616        -9.61850        -8.32611
   C       -0.20243        -9.58780        -9.13604
   C       -0.11970        -9.98796       -10.45810
   C        1.11200       -10.40843       -10.95007
   C        2.24548       -10.43294       -10.13906
   C        2.16630       -10.03864        -8.80879
  Br        3.90838       -11.00248       -10.83651
  Br        1.22754       -10.95297       -12.75866
   C       -1.32410        -9.08805        -8.33883
   C       -2.59363        -8.87151        -8.81127
   C       -3.00672        -9.16558       -10.12743
   N       -3.40437        -9.38566       -11.18155
   C       -3.65769        -8.31469        -8.07175
   N       -4.56956        -7.85549        -7.54538
   C       -0.82075        -8.81012        -7.01236
   C       -1.57919        -8.39112        -5.93800
   C       -1.15173        -7.88081        -4.71260
   C        0.03302        -7.30677        -4.25198
   C       -0.03545        -6.78553        -2.93114
   C        1.16845        -6.08646        -2.61821
   C        2.08355        -6.06515        -3.61823
   S        1.52621        -6.94876        -5.02553
   C        3.42230        -5.42349        -3.60662
   F        1.38080        -5.44574        -1.45383
   C       -1.27551        -6.97892        -2.32687
   S       -2.35876        -7.75526        -3.43693
   C       -1.73924        -6.63065        -1.01231
   C       -3.07544        -6.35011        -0.82005
   C       -3.53860        -5.95815         0.44721
   C       -4.80658        -5.58858         0.87993
   C       -6.04993        -5.62848         0.06181
   C       -6.85830        -6.92052         0.33199
   N       -7.10311        -7.10942         1.75474
   C       -6.96347        -4.40392         0.23345
   N       -7.84105        -4.30625        -0.92111
   C       -4.68041        -5.25655         2.27994
   C       -5.58581        -4.83166         3.18083
   C       -5.21149        -4.53777         4.58895
   C       -3.77777        -4.82398         4.93240
   C       -2.88590        -5.24291         4.01805
   C       -3.27828        -5.45976         2.67438
   C       -2.59253        -5.87877         1.55381
   C       -1.23892        -6.22740         1.33524
   C       -0.82798        -6.58959         0.09505
   C       -6.10963        -5.22118         5.58101
   C       -6.95185        -6.21542         5.28233
   C       -7.80103        -6.85449         6.23676
   C       -8.68894        -7.88260         6.00070
   C       -9.41193        -8.33075         7.13464
   C      -10.35595        -9.32064         6.74987
   C      -10.31987        -9.66474         5.43403
   S       -9.11625        -8.75070         4.55920
   C      -11.15774       -10.67704         4.74697
   F      -11.27146        -9.84337         7.58899
   C       -9.05396        -7.64859         8.29859
   S       -7.88099        -6.40626         7.91061
   C       -9.46509        -7.78542         9.63539
   C       -9.98520        -8.86917        10.28617
   C      -10.72256        -8.64987        11.55727
   O      -10.77315        -7.63023        12.20408
   C      -11.41309        -9.93099        11.82488
   C      -11.02536       -10.88091        10.86235
   C      -10.02999       -10.27715         9.97641
   C       -9.15619       -10.97802         9.18426
   C       -8.04578       -10.40602         8.53660
   N       -7.11471        -9.99464         8.00470
   C       -9.23937       -12.36714         8.95991
   N       -9.27110       -13.48904         8.72041
   C      -11.57287       -12.15121        10.88910
   C      -12.49692       -12.45485        11.88314
   C      -12.86443       -11.51167        12.84406
   C      -12.32030       -10.23354        12.81818
  Br      -14.11211       -11.95830        14.19181
  Br      -13.26012       -14.18377        11.91432
   H       -0.97428        -9.98626       -11.11494
   H        3.03590       -10.05755        -8.17063
   H       -2.65509        -8.46122        -6.03569
   H        3.57564        -4.90237        -2.66438
   H        3.51081        -4.71241        -4.42689
   H        4.20314        -6.17353        -3.72861
   H       -3.75707        -6.39393        -1.65808
   H       -5.75933        -5.66405        -0.99359
   H       -6.31940        -7.76682        -0.12070
   H       -7.81823        -6.80705        -0.17480
   H       -6.26375        -7.46828         2.19952
   H       -7.84145        -7.79046         1.89378
   H       -6.34261        -3.50549         0.39153
   H       -7.60145        -4.54716         1.10645
   H       -7.30876        -4.09021        -1.75773
   H       -8.52361        -3.56858        -0.78989
   H       -6.62136        -4.68562         2.92028
   H       -5.36552        -3.45289         4.73190
   H       -3.49579        -4.66648         5.96181
   H       -1.85875        -5.42594         4.29796
   H       -0.54352        -6.20831         2.16068
   H        0.19403        -6.88554        -0.06983
   H       -6.02160        -4.88049         6.60469
   H       -7.04607        -6.58328         4.26874
   H      -11.91589       -11.05532         5.42895
   H      -10.54238       -11.51109         4.40872
   H      -11.64307       -10.24379         3.87348
   H       -9.39504        -6.88725        10.24262
   H      -11.31584       -12.90164        10.15902
   H      -12.60009        -9.49574        13.55404
*
