# ORCA input file
# SCF done       -200.298201678941          0.000891732221
! CAM-B3LYP def2-SVP def2/J RIJCOSX Grid4 TightSCF
%maxcore 5000
%tddft
    Mode sTDDFT
    Ethresh 5.0
    maxcore 5000
end

%pal
  nprocs 6
  end
* xyz 0 1
   C       -1.05911         0.28020        -3.65401
   C       -1.43895         0.72187        -4.89188
   C       -2.16361        -0.06231        -5.81449
   N       -2.76504        -0.65801        -6.58890
   C       -1.06549         1.97385        -5.42145
   N       -0.73617         2.95831        -5.91191
   C       -1.17381        -1.08419        -3.15916
   C       -0.26846        -1.25309        -2.06839
   C       -0.12797        -2.45467        -1.43454
   C       -0.90394        -3.55509        -1.86215
   C       -1.82224        -3.38769        -2.93998
   C       -1.94414        -2.13499        -3.58200
   C       -2.59474        -4.49249        -3.35280
   C       -2.46551        -5.70623        -2.73456
   C       -1.56048        -5.87069        -1.67496
   C       -0.79624        -4.81860        -1.24821
   C        0.40899         0.02367        -1.79007
   O        1.27624         0.26015        -0.98260
   C       -0.25162         1.01512        -2.69278
   C       -0.13232         2.34026        -2.46638
   C       -0.97934         3.36987        -3.00468
   C       -2.33673         3.34653        -3.02932
   C       -2.81641         4.61806        -3.54687
   C       -4.17262         4.91436        -3.74531
   N       -5.28776         5.13966        -3.89191
   C       -1.74828         5.42383        -3.80814
   C       -0.54360         4.69198        -3.49765
   C        0.74332         5.04904        -3.78277
   C        1.24078         6.36221        -4.26087
   C        2.46862         6.14845        -4.81452
   C        2.82757         4.75696        -4.63429
   C        1.82286         4.11570        -3.96438
   C        4.02709         4.18749        -5.08680
   N        5.01534         3.73619        -5.45504
   C        0.64589         7.64752        -4.10161
   C       -0.24187         8.01082        -3.14901
   C       -0.79109         9.31993        -3.04546
   S       -0.41238        10.57349        -4.20968
   C       -1.44174        11.71541        -3.42041
   C       -2.02287        11.13855        -2.29810
   C       -1.66568         9.79132        -2.09907
   N       -2.84040        11.83848        -1.36737
   O       -2.83747        13.05443        -1.40269
   O       -3.47778        11.17012        -0.58062
   C       -1.58551        13.03464        -3.96060
   C       -0.56179        13.80407        -4.41791
   C       -1.08827        15.10779        -4.77356
   C       -0.31293        16.14319        -5.31560
   N        0.33434        16.97700        -5.76483
   C       -2.42880        15.13563        -4.51041
   C       -2.82684        13.83333        -4.04454
   C       -4.10876        13.36858        -3.92757
   C       -5.35144        14.17452        -3.84432
   C       -6.40431        13.30614        -3.91174
   C       -5.89081        11.95979        -4.03388
   C       -4.52224        11.99454        -4.00779
   C       -6.69184        10.81502        -4.16185
   N       -7.35172         9.88321        -4.26998
   C       -5.42066        15.57462        -3.59722
   C       -6.52015        16.32733        -3.86638
   C       -6.55299        17.72005        -3.62526
   C       -7.60295        18.53428        -3.94335
   C       -7.67968        19.97298        -3.76042
   C       -6.72465        20.78534        -3.20477
   C       -6.86329        22.18179        -3.05566
   N       -6.90827        23.31863        -2.90272
   C       -5.47369        20.36555        -2.70627
   N       -4.43663        20.10585        -2.28644
   C       -8.96488        20.42068        -4.28614
   C       -9.67881        19.28856        -4.77267
   C       -8.87206        18.07494        -4.57270
   O       -9.18808        16.94056        -4.86601
   C      -10.91760        19.40076        -5.33545
   C      -11.51153        20.67755        -5.44399
   C      -10.80513        21.81640        -4.95961
   C       -9.52500        21.66789        -4.37823
   C      -11.40523        23.08682        -5.07576
   C      -12.64206        23.22733        -5.64413
   C      -13.33622        22.10525        -6.12099
   C      -12.78331        20.85720        -6.02242
   H        0.56878        -2.56491        -0.61694
   H       -2.65260        -2.03175        -4.38918
   H       -3.28732        -4.36137        -4.17107
   H       -3.05980        -6.54699        -3.05914
   H       -1.47202        -6.83538        -1.19847
   H       -0.09791        -4.93987        -0.43326
   H        0.61629         2.64168        -1.73945
   H       -2.97809         2.54868        -2.70158
   H       -1.78433         6.38742        -4.27595
   H        3.10802         6.88143        -5.27001
   H        1.78488         3.06803        -3.73804
   H        1.01647         8.41177        -4.77602
   H       -0.57097         7.30623        -2.39788
   H       -2.03901         9.21163        -1.27444
   H        0.47615        13.53206        -4.47151
   H       -3.09293        15.94618        -4.73742
   H       -7.44829        13.54430        -3.83861
   H       -3.87662        11.14923        -4.14808
   H       -4.55094        16.04676        -3.15966
   H       -7.38953        15.87512        -4.31876
   H       -5.66926        18.15347        -3.17428
   H      -11.43582        18.52484        -5.69672
   H       -9.01836        22.55083        -4.02281
   H      -10.86709        23.94790        -4.70752
   H      -13.09254        24.20477        -5.72986
   H      -14.31091        22.23471        -6.56709
   H      -13.31268        19.98939        -6.38776
*
