# ORCA input file
# SCF done       -208.749476010541          0.000645241294
! CAM-B3LYP def2-SVP def2/J RIJCOSX Grid4 TightSCF
%maxcore 5000
%tddft
    Mode sTDDFT
    Ethresh 5.0
    maxcore 5000
end

%pal
  nprocs 6
  end
* xyz 0 1
   C       -4.23684        -1.14664        -1.02547
   C       -2.89939        -1.29089        -0.75386
   C       -2.20640        -2.51567        -0.82770
   N       -1.59329        -3.48563        -0.87767
   C       -2.04686        -0.25010        -0.33024
   N       -1.29328         0.53001         0.04739
   C       -5.16234        -2.22747        -1.34712
   C       -6.46935        -1.69132        -1.44167
   C       -7.56856        -2.46478        -1.72201
   C       -7.37104        -3.83726        -1.90835
   C       -6.06156        -4.36363        -1.81494
   C       -4.94790        -3.57960        -1.53891
   S       -6.04267        -6.08090        -2.08512
   C       -7.77136        -6.06721        -2.31275
   C       -8.33551        -4.84230        -2.19520
  Br       -8.66877        -7.67180        -2.68582
   C       -6.42109        -0.23100        -1.21937
   O       -7.34276         0.54294        -1.37048
   C       -4.99885         0.07930        -0.93672
   C       -4.49773         1.34305        -0.80147
   C       -5.26553         2.48752        -0.45630
   C       -4.90421         3.76961        -0.92420
   C       -5.70021         4.94066        -0.63748
   N       -5.30098         6.13257        -1.10764
   C       -4.22712         6.20598        -1.86109
   C       -3.46579         5.03689        -2.17534
   N       -3.81262         3.86478        -1.70019
   C       -2.32017         5.15241        -2.99900
   N       -1.41019         5.31233        -3.67731
   C       -3.83130         7.45909        -2.38060
   N       -3.48949         8.44755        -2.85243
   C       -6.87512         4.87630         0.15506
   C       -7.16031         3.61305         0.71819
   C       -6.37198         2.43901         0.41735
   N       -6.79195         1.36902         1.08605
   S       -8.08404         1.76757         1.94968
   N       -8.15970         3.32106         1.55602
   C       -7.72067         6.02932         0.38084
   C       -7.83554         7.04430        -0.58583
   C       -8.61761         8.13918        -0.32959
   C       -9.33215         8.25322         0.87881
   C       -9.23860         7.24821         1.83566
   C       -8.44078         6.15529         1.58207
   C      -10.06499         9.49217         0.86550
   C       -9.78334        10.16704        -0.34031
   C       -8.85485         9.34647        -1.20494
   C       -7.53702        10.09000        -1.49443
   C       -6.79867        10.50271        -0.22716
   C       -9.52810         8.95762        -2.53455
   C      -10.83467         8.19833        -2.33830
   C      -10.32827        11.39490        -0.60067
   C      -11.19614        11.99019         0.33740
   C      -11.50303        11.27973         1.51362
   C      -10.94061        10.05401         1.78980
   C      -11.76055        13.28977         0.13420
   C      -11.30893        14.18925        -0.78513
   C      -11.81535        15.47665        -1.00516
   C      -11.22413        16.34487        -1.89881
   C      -11.59886        17.65949        -2.24987
   C      -10.77177        18.25727        -3.16234
   C       -9.69787        17.44754        -3.57122
   S       -9.77609        15.89207        -2.78111
   C       -8.64664        17.71429        -4.43820
   C       -8.35851        18.86376        -5.19674
   C       -7.20629        18.76319        -5.92582
   C       -6.51938        17.53555        -5.77900
   S       -7.41567        16.50322        -4.68179
   C       -5.33106        17.18212        -6.37795
   C       -4.61137        15.98418        -6.22184
   C       -3.36471        15.71879        -6.89384
   C       -2.90791        14.47197        -6.52274
   C       -1.75090        13.74238        -6.88433
   C       -1.57951        12.50620        -6.32541
   C       -0.54826        11.52542        -6.46849
   C       -0.85277        10.43233        -5.67463
   C       -2.08859        10.69713        -5.00542
   C       -2.54689        11.95194        -5.38928
   C       -3.69398        12.66505        -5.02840
   C       -3.87420        13.91403        -5.59064
   C       -4.90360        14.86323        -5.43029
   C       -0.05734         9.23442        -5.55425
   C       -0.36518         8.19190        -4.78642
   H       -8.55185        -2.02634        -1.79076
   H       -3.96947        -4.02683        -1.48442
   H       -9.38752        -4.65255        -2.30640
   H       -3.44899         1.52982        -0.99470
   H       -7.32346         6.94853        -1.52891
   H       -9.77245         7.32695         2.77085
   H       -8.34553         5.38203         2.32623
   H       -7.75996        10.97731        -2.09120
   H       -6.89165         9.43957        -2.08827
   H       -7.41263        11.16530         0.37964
   H       -5.87908        11.02285        -0.48471
   H       -6.54219         9.62880         0.36728
   H       -8.83320         8.34106        -3.10835
   H       -9.71939         9.86683        -3.10856
   H      -10.66441         7.27584        -1.78762
   H      -11.26950         7.94745        -3.30312
   H      -11.55116         8.80127        -1.78447
   H      -10.11128        11.89664        -1.53071
   H      -12.18202        11.72866         2.22468
   H      -11.17545         9.53681         2.70810
   H      -12.56828        13.57957         0.79455
   H      -10.45726        13.92001        -1.39653
   H      -12.68684        15.81280        -0.46058
   H      -12.46591        18.12967        -1.82016
   H      -10.90705        19.25591        -3.53845
   H       -8.99833        19.72807        -5.18932
   H       -6.82621        19.54246        -6.56327
   H       -4.89705        17.92183        -7.04005
   H       -2.88412        16.40018        -7.57315
   H       -1.03528        14.16100        -7.57819
   H        0.31860        11.63045        -7.09540
   H       -2.57988        10.03354        -4.31840
   H       -4.40840        12.24834        -4.33333
   H       -5.75660        14.72371        -4.79609
   H        0.84745         9.22157        -6.14954
   H       -1.25546         8.16637        -4.18183
   H        0.25958         7.31790        -4.73877
*
