# ORCA input file
# SCF done       -202.486780151913          0.000864201956
! CAM-B3LYP def2-SVP def2/J RIJCOSX Grid4 TightSCF
%maxcore 5000
%tddft
    Mode sTDDFT
    Ethresh 5.0
    maxcore 5000
end

%pal
  nprocs 6
  end
* xyz 0 1
   C       -9.56652         9.77263         1.81009
   C      -10.03040         9.95312         3.08635
   C      -10.28807        11.21231         3.66649
   N      -10.51309        12.21018         4.18667
   C      -10.32037         8.89566         3.97311
   N      -10.57274         8.06153         4.72002
   C       -9.27425        10.82877         0.84466
   C       -8.86154        10.23665        -0.37811
   C       -8.50752        10.97907        -1.47930
   C       -8.56025        12.37226        -1.37058
   C       -8.97391        12.95473        -0.14803
   C       -9.33389        12.20354         0.96520
   S       -8.96239        14.68859        -0.23062
   C       -8.40832        14.61140        -1.88236
   C       -8.24104        13.35105        -2.35033
  Br       -8.10367        16.19891        -2.83193
   C       -8.87055         8.77912        -0.22529
   O       -8.57967         7.93471        -1.06825
   C       -9.28628         8.51332         1.15665
   C       -9.31229         7.23767         1.66160
   N       -8.98861         6.20500         0.87324
   C       -8.85576         4.90345         1.22830
   S       -9.11865         4.34941         2.84978
   C       -8.64812         2.75542         2.35395
   N       -8.67914         1.73997         3.32404
   O       -8.36076         0.62034         2.97852
   O       -9.03329         2.06816         4.44130
   C       -8.30546         2.66360         1.03252
   C       -8.42953         3.89350         0.35751
   C       -8.19195         4.10382        -1.04681
   C       -7.38544         3.33593        -1.80279
   C       -7.20197         3.51661        -3.20527
   C       -6.19920         2.94692        -3.97677
   C       -5.21179         2.13512        -3.39328
   N       -4.43282         1.48388        -2.86131
   C       -6.30028         3.29684        -5.34952
   C       -7.40264         4.11423        -5.57786
   S       -8.29333         4.49773        -4.15764
   S       -7.65149         4.57037        -7.23294
   C       -6.23219         3.65945        -7.63844
   C       -5.59818         3.04543        -6.56410
   C       -4.42409         2.36128        -6.97790
   C       -3.66079         1.50911        -6.16342
   N       -3.05791         0.76275        -5.53545
   C       -4.19354         2.47549        -8.34361
   S       -5.45779         3.38632        -9.15110
   C       -3.09757         1.96611        -9.09236
   C       -1.79872         1.97846        -8.67010
   C       -0.68504         1.39243        -9.33577
   C        0.51115         1.64589        -8.74583
   C        0.42108         2.47605        -7.60020
   S       -1.24273         2.87447        -7.26340
   C        1.45243         2.98532        -6.83553
   C        2.83523         2.70760        -6.93567
   C        3.59958         3.41519        -6.05857
   C        2.86334         4.30051        -5.23369
   S        1.15712         4.17241        -5.58554
   C        3.38645         5.20097        -4.32954
   C        2.60561         6.09285        -3.59667
   C        3.02144         7.12652        -2.79012
   C        4.30057         7.76175        -2.61522
   C        5.32423         7.83764        -3.53116
   C        6.53926         8.51090        -3.29668
   N        7.55629         9.02531        -3.15434
   C        5.24998         7.36381        -4.85570
   N        5.23619         7.04726        -5.95993
   C        4.24017         8.52820        -1.37021
   C        2.90040         8.53518        -0.90768
   C        2.07359         7.70827        -1.81142
   O        0.87810         7.51760        -1.75273
   C        2.51095         9.21948         0.21696
   C        3.49147         9.92207         0.92644
   C        4.82867         9.89438         0.46655
   C        5.22203         9.20773        -0.67671
   S        5.87801        10.82076         1.49604
   C        4.52269        11.23286         2.51277
   C        3.34527        10.70224         2.10638
  Br        4.79030        12.32440         4.01466
   H       -8.19520        10.50079        -2.39431
   H       -9.63847        12.69404         1.87454
   H       -7.90489        13.12038        -3.34465
   H       -9.56925         7.01928         2.69017
   H       -8.74145         6.48629        -0.09468
   H       -8.00405         1.73837         0.57661
   H       -8.70115         4.93879        -1.51225
   H       -6.80062         2.54221        -1.35765
   H       -3.30492         1.60160       -10.08966
   H       -0.81730         0.79694       -10.22148
   H        1.45565         1.28547        -9.11134
   H        3.22361         1.99423        -7.63986
   H        4.67050         3.34893        -5.98907
   H        4.45936         5.19653        -4.20575
   H        1.53115         5.93119        -3.60468
   H        1.48174         9.21557         0.53988
   H        6.25421         9.21395        -0.98515
   H        2.41108        10.85356         2.61567
*
