# ORCA input file
# SCF done       -195.232586058349          0.000624590189
! CAM-B3LYP def2-SVP def2/J RIJCOSX Grid4 TightSCF
%maxcore 5000
%tddft
    Mode sTDDFT
    Ethresh 5.0
    maxcore 5000
end

%pal
  nprocs 6
  end
* xyz 0 1
   C       -8.03644         0.11764        -1.94280
   O       -8.26632        -0.85001        -2.63348
   C       -8.67695         1.44663        -2.08528
   C       -8.20208         2.31688        -1.09066
   C       -8.67929         3.61932        -1.03703
   C       -9.61545         4.02683        -1.97508
   C      -10.06843         3.14849        -2.95052
   C       -9.60943         1.84052        -3.02215
  Br      -11.35093         3.75423        -4.21580
   C       -7.23259         1.60016        -0.26850
   C       -6.47914         2.15912         0.73182
   C       -6.58715         3.50358         1.14419
   N       -6.62935         4.58381         1.53106
   C       -5.47559         1.49984         1.47285
   N       -4.63257         1.05254         2.11241
   C       -7.15544         0.23290        -0.75535
   C       -6.53131        -0.78320        -0.08918
   C       -6.27183        -2.13181        -0.48742
   C       -6.07254        -3.08395         0.53540
   C       -5.80069        -4.38465         0.20956
   C       -5.67941        -4.77283        -1.14071
   C       -5.83143        -3.83536        -2.15591
   C       -6.12896        -2.53108        -1.82709
   C       -5.37184        -6.17970        -1.18751
   C       -5.30634        -6.67134         0.13047
   C       -5.57358        -5.56539         1.12431
   C       -4.36035        -5.33636         2.04553
   C       -3.08055        -5.03281         1.27590
   C       -6.82104        -5.86252         1.97701
   C       -8.06830        -6.10628         1.13590
   C       -5.02278        -7.99076         0.36838
   C       -4.78055        -8.86430        -0.70909
   C       -4.85440        -8.35497        -2.01766
   C       -5.14818        -7.03240        -2.26284
   C       -4.46384       -10.23188        -0.41906
   C       -4.06723       -11.18085        -1.30555
   C       -3.74939       -12.50839        -0.95952
   S       -3.89283       -13.10445         0.66440
   C       -3.28386       -14.68890         0.25995
   C       -3.02728       -14.76443        -1.13142
   C       -3.27723       -13.52948        -1.80589
   C       -3.05571       -13.42558        -3.19102
   C       -2.62636       -14.52314        -3.88122
   F       -2.40767       -14.43868        -5.20564
   C       -2.42834       -15.75401        -3.22773
   F       -2.04369       -16.82426        -3.94758
   C       -2.62814       -15.88314        -1.88015
   C       -3.12091       -15.59811         1.30711
   C       -2.41620       -16.78232         1.29126
   C       -2.31282       -17.63503         2.38196
   C       -1.56122       -18.79943         2.37258
   C       -1.39240       -19.72329         3.41947
   C       -0.57861       -20.78141         3.11035
   C       -0.06667       -20.73999         1.80387
   S       -0.65073       -19.31895         0.96896
   C        0.79006       -21.63796         1.17912
   C        1.35168       -22.81774         1.70207
   C        2.17008       -23.47121         0.82586
   C        2.30272       -22.84616        -0.43597
   S        1.32678       -21.38538        -0.46065
   C        3.08680       -23.30339        -1.46928
   C        3.29438       -22.74679        -2.74369
   C        4.17098       -23.28451        -3.70161
   C        4.14782       -22.46914        -4.85118
   C        4.82654       -22.54695        -6.05308
   C        4.57976       -21.55240        -7.00559
   C        5.09582       -21.34705        -8.28212
   C        4.50955       -20.17233        -8.83716
   C        3.62675       -19.64935        -7.90340
   C        3.63770       -20.47712        -6.74267
   C        2.95886       -20.39464        -5.55472
   C        3.20958       -21.39075        -4.58870
   C        2.70277       -21.57011        -3.31539
   C        4.77063       -19.60154       -10.13671
   C        5.61337       -20.09069       -11.04225
   H       -8.34538         4.31572        -0.28576
   H       -9.99759         5.03573        -1.94722
   H       -9.95909         1.15242        -3.77619
   H       -6.19530        -0.55632         0.91680
   H       -6.15739        -2.77504         1.56765
   H       -5.71401        -4.12190        -3.18985
   H       -6.22464        -1.79846        -2.60986
   H       -4.21278        -6.23004         2.65548
   H       -4.58347        -4.50584         2.71822
   H       -2.82663        -5.85552         0.61086
   H       -2.25577        -4.88289         1.96847
   H       -3.19492        -4.13094         0.67868
   H       -6.99459        -5.01862         2.64800
   H       -6.62134        -6.74235         2.59226
   H       -8.29819        -5.23574         0.52545
   H       -8.92030        -6.30837         1.78092
   H       -7.92631        -6.95943         0.47612
   H       -4.97143        -8.37404         1.37759
   H       -4.68600        -9.01584        -2.85360
   H       -5.20351        -6.66310        -3.27598
   H       -4.53059       -10.51855         0.62404
   H       -3.95934       -10.93240        -2.35102
   H       -3.22301       -12.50113        -3.71827
   H       -2.49794       -16.85237        -1.43215
   H       -3.55977       -15.29865         2.25168
   H       -1.86621       -17.06663         0.40708
   H       -2.84198       -17.39394         3.29429
   H       -1.87141       -19.58675         4.37302
   H       -0.33999       -21.57782         3.79230
   H        1.14417       -23.15426         2.70188
   H        2.68749       -24.38741         1.05115
   H        3.63201       -24.21795        -1.26508
   H        4.76655       -24.16988        -3.57355
   H        5.52727       -23.34517        -6.25400
   H        5.82009       -21.97275        -8.77043
   H        3.02853       -18.76480        -8.02501
   H        2.25606       -19.59919        -5.35141
   H        1.98153       -20.93542        -2.83622
   H        4.21506       -18.69844       -10.35660
   H        6.18709       -20.98482       -10.86966
   H        5.75851       -19.60973       -11.99393
*
