# ORCA input file
# SCF done       -326.225664596027          0.000805668376
! CAM-B3LYP def2-SVP def2/J RIJCOSX Grid4 TightSCF
%maxcore 5000
%tddft
    Mode sTDDFT
    Ethresh 5.0
    maxcore 5000
end

%pal
  nprocs 6
  end
* xyz 0 1
   C        1.72367        15.55406         6.66038
   C        0.79191        16.31080         6.09650
   C        0.08403        17.40286         6.76023
   C       -0.37969        18.46955         5.99051
   C       -0.96037        19.58710         6.57326
   C       -1.09964        19.61616         7.94263
   C       -0.72862        18.50572         8.71015
   C       -0.12415        17.40440         8.14314
   N       -1.05663        18.73434        10.03923
   C       -0.86081        17.79320        11.10701
   C       -1.59064        19.98164        10.21948
   O       -1.99370        20.41609        11.27190
   C       -1.51258        20.70978         8.87779
   C       -0.36455        21.76290         8.98511
   C       -0.06122        22.24744         7.57280
   O       -0.70780        23.01352         6.89833
   N        1.07227        21.60089         7.15333
   C        1.63307        21.85021         5.85111
   C        1.64211        20.85720         8.18315
   C        2.75809        20.01916         8.17188
   C        3.37146        19.53979         6.94499
   C        4.64775        19.16708         6.79653
   C        5.18137        18.58389         5.57569
   C        6.53065        18.75093         5.25984
   C        7.06906        18.24807         4.08480
   C        6.25014        17.54265         3.23182
   C        4.90569        17.34141         3.56216
   C        4.35534        17.85042         4.71612
   N        4.29490        16.57713         2.57752
   C        2.90891        16.19944         2.57388
   C        5.16243        16.26307         1.57395
   O        4.87840        15.60521         0.59725
   C        6.50483        16.92687         1.89381
   C        6.77571        18.00468         0.81088
   C        5.47243        18.77019         0.60209
   O        4.92855        19.51995         1.38385
   N        4.97944        18.43054        -0.62435
   C        3.80710        19.07513        -1.15151
   C        5.85285        17.58386        -1.30558
   C        5.73331        17.00314        -2.56582
   C        4.47951        16.93834        -3.31104
   C        3.35403        16.50426        -2.73198
   C        2.04603        16.36368        -3.34600
   C        0.99067        15.89340        -2.55933
   C       -0.28954        15.73807        -3.06728
   C       -0.52126        16.06990        -4.38321
   C        0.52987        16.54086        -5.17727
   C        1.80530        16.69628        -4.68428
   N        0.05783        16.81539        -6.45415
   C        0.87110        17.25335        -7.55453
   C       -1.27347        16.54788        -6.56635
   O       -1.92793        16.72077        -7.57206
   C       -1.74893        15.97070        -5.23042
   C       -2.16018        14.49149        -5.46428
   C       -1.06608        13.87049        -6.32870
   O        0.07349        13.62377        -6.00014
   N       -1.57819        13.68546        -7.58010
   C       -0.79829        13.05007        -8.60856
   C       -2.93225        14.01151        -7.62490
   C       -3.82327        13.97158        -8.69558
   C       -3.36570        13.89085       -10.08156
   C       -2.43626        14.75344       -10.50786
   C       -1.79409        14.81591       -11.80724
   C       -1.93575        13.81923       -12.77469
   C       -1.20696        13.84701       -13.95371
   C       -0.33839        14.89297       -14.17487
   C       -0.22144        15.91494       -13.22712
   C       -0.93158        15.89261       -12.04975
   N        0.70188        16.85488       -13.66664
   C        1.09478        18.02399       -12.92999
   C        1.24880        16.49974       -14.86312
   O        2.08277        17.14186       -15.46295
   C        0.66111        15.14229       -15.25819
   C        1.81184        14.10369       -15.20084
   C        2.54538        14.29889       -13.87839
   O        2.10767        14.12399       -12.76136
   N        3.80063        14.75681       -14.15647
   C        4.72088        15.05638       -13.09142
   C        4.02976        14.82018       -15.52939
   C        5.18033        15.18449       -16.22907
   C        6.36976        15.72183       -15.58279
   C        7.62668        15.43336       -15.93812
   C        8.81432        15.94541       -15.27404
   C       10.01683        15.24771       -15.40831
   C       11.16576        15.63940       -14.73808
   C       11.11504        16.76073       -13.94111
   C        9.92426        17.48644       -13.83161
   C        8.77488        17.09940       -14.48200
   N       10.12331        18.58364       -13.00394
   C        9.10364        19.52460       -12.63122
   C       11.39707        18.62475       -12.52101
   O       11.82926        19.47070       -11.76957
   C       12.13997        17.39947       -13.06075
   C       12.51524        16.50218       -11.85758
   C       11.30949        16.42621       -10.91717
   O       10.20702        15.99204       -11.17121
   N       11.67781        16.97259        -9.72415
   C       10.77277        17.15400        -8.62303
   C       13.00144        17.39146        -9.73959
   C       13.73403        17.98767        -8.73255
   C       15.05944        18.30152        -9.00073
   C       15.62804        18.02593       -10.23240
   C       14.88182        17.42945       -11.24198
   C       13.56759        17.11192       -10.98694
   C        5.13340        15.04679       -17.62124
   C        4.00609        14.60454       -18.28299
   C        2.85632        14.27706       -17.57496
   C        2.88443        14.38030       -16.20356
   C       -5.17432        14.16342        -8.39526
   C       -5.60409        14.47269        -7.11944
   C       -4.68886        14.63230        -6.08504
   C       -3.36084        14.38653        -6.34641
   C        6.86781        16.35562        -3.06658
   C        8.02110        16.21140        -2.32187
   C        8.08501        16.69650        -1.02062
   C        7.00276        17.38983        -0.53123
   C        3.17834        19.53229         9.41709
   C        2.50801        19.82002        10.58821
   C        1.33108        20.56165        10.56477
   C        0.90466        21.06006         9.35594
   H        2.22903        14.77395         6.11671
   H        2.02800        15.69076         7.68409
   H        0.54063        16.16668         5.05242
   H       -0.25387        18.43674         4.91768
   H       -1.28740        20.41726         5.96565
   H        0.17726        16.56031         8.74171
   H        0.20331        17.58485        11.23908
   H       -1.38988        16.86103        10.89979
   H       -1.25914        18.24236        12.01595
   H       -2.44186        21.21791         8.61809
   H       -0.67185        22.56428         9.65664
   H        1.20140        22.78351         5.48670
   H        1.37817        21.05420         5.14839
   H        2.71657        21.94332         5.91621
   H        2.69673        19.43746         6.10815
   H        5.35957        19.33668         7.59354
   H        7.16087        19.30908         5.93636
   H        8.11059        18.40817         3.84841
   H        3.32161        17.67427         4.96780
   H        2.27377        17.08658         2.52019
   H        2.66595        15.63378         3.47532
   H        2.74217        15.57612         1.69576
   H        7.31958        16.19915         1.88562
   H        7.57941        18.66039         1.15157
   H        3.59167        19.92343        -0.50010
   H        2.94669        18.40402        -1.16255
   H        3.99381        19.42375        -2.16732
   H        4.53005        17.16565        -4.36686
   H        3.41340        16.20064        -1.69392
   H        1.18593        15.63418        -1.52904
   H       -1.08559        15.36419        -2.44043
   H        2.60123        17.05245        -5.31703
   H        1.62692        16.50102        -7.79033
   H        1.36049        18.20031        -7.31753
   H        0.21286        17.38994        -8.41190
   H       -2.60620        16.52413        -4.84004
   H       -2.25541        13.98882        -4.50027
   H        0.08185        12.62638        -8.12276
   H       -0.47702        13.76083        -9.37186
   H       -1.37616        12.25881        -9.08602
   H       -3.84715        13.17816       -10.73645
   H       -2.09927        15.49894        -9.79667
   H       -2.60048        12.99042       -12.58864
   H       -1.30868        13.05053       -14.67627
   H       -0.81887        16.66867       -11.30840
   H        1.55483        17.73821       -11.98120
   H        0.23069        18.66193       -12.73458
   H        1.81775        18.56632       -13.53877
   H        0.24418        15.16368       -16.26715
   H        1.38740        13.09994       -15.27553
   H        4.29807        14.63083       -12.17986
   H        4.82726        16.13477       -12.95540
   H        5.69629        14.61144       -13.28719
   H        6.19101        16.39869       -14.76231
   H        7.80414        14.70933       -16.72293
   H       10.04210        14.36525       -16.03069
   H       12.07870        15.07124       -14.84003
   H        7.86749        17.67346       -14.38995
   H        8.29890        19.01862       -12.09339
   H        8.69519        20.01735       -13.51579
   H        9.56563        20.26718       -11.98137
   H       13.05220        17.69212       -13.58619
   H       12.78231        15.50819       -12.22596
   H        9.81227        16.73167        -8.91671
   H       10.65331        18.21654        -8.40092
   H       11.14154        16.63764        -7.73445
   H       13.29556        18.21092        -7.77270
   H       15.65519        18.77161        -8.23254
   H       16.66077        18.28213       -10.41364
   H       15.32664        17.22190       -12.20401
   H        6.00618        15.33158       -18.18944
   H        4.01346        14.52660       -19.35954
   H        1.96555        13.94612       -18.08730
   H       -5.89071        14.10877        -9.20203
   H       -6.65594        14.62652        -6.93202
   H       -5.01455        14.92929        -5.09936
   H        6.81283        15.92159        -4.05427
   H        8.86839        15.69153        -2.74255
   H        8.96619        16.54454        -0.41552
   H        4.03942        18.88190         9.44513
   H        2.87746        19.43265        11.52575
   H        0.76604        20.73793        11.46680
*
