# ORCA input file
# SCF done       -169.553771415554          0.000748036678
! CAM-B3LYP def2-SVP def2/J RIJCOSX Grid4 TightSCF
%maxcore 5000
%tddft
    Mode sTDDFT
    Ethresh 5.0
    maxcore 5000
end

%pal
  nprocs 6
  end
* xyz 0 2
   C        5.88340        -3.39201        -5.50371
   C        6.79116        -2.67537        -4.84206
   C        7.25544        -1.30956        -5.22048
   O        6.88375        -0.64717        -6.15738
   C        8.26262        -0.94098        -4.19924
   C        8.99874         0.22573        -4.08975
   C        9.87424         0.35977        -3.02094
  Cl       10.80878         1.78316        -2.86061
   C       10.00336        -0.67271        -2.07643
  Cl       11.05478        -0.46892        -0.74649
   C       10.15561         0.84994         1.06000
   C       10.14388         0.28791         2.28194
   C        9.93225        -1.09571         2.63148
   C        8.95005        -1.83065         1.93755
   C        8.10133        -1.42560         0.88464
   C        7.25195        -2.42213         0.48530
   C        6.31122        -2.32365        -0.57596
   O        5.51845        -3.37359        -0.89479
   C        4.75588        -3.05018        -1.96390
   C        3.91514        -4.03912        -2.55750
   C        3.08778        -3.81438        -3.63302
   S        2.26229        -5.21724        -4.17314
   C        3.02962        -6.17594        -2.94515
   C        3.00293        -7.52657        -2.57397
   C        3.83942        -7.75591        -1.50682
   C        4.13949        -8.99424        -0.77251
   O        4.88104        -9.01211         0.17142
   O        3.53925       -10.11484        -1.21167
   S        4.66600        -6.32641        -0.94795
   C        3.87984        -5.40229        -2.15905
   C        5.03617        -1.75454        -2.33343
   C        6.04269        -1.28751        -1.44567
   C        6.43512         0.05939        -1.85776
   O        7.28424         0.79963        -1.42503
   N        5.61018         0.32927        -2.94498
   C        4.73922        -0.70167        -3.30245
   O        3.95194        -0.66743        -4.21165
   S        7.44277        -3.91098         1.38687
   C        8.69340        -3.17258         2.33244
   N        9.30761        -3.79994         3.31404
   C       10.23980        -3.11607         3.93767
   S       11.16573        -3.81896         5.23324
   C       12.09244        -2.34901         5.34967
   F       13.08058        -2.26352         6.23122
   C       11.71099        -1.38207         4.47914
   F       12.34439        -0.20624         4.38169
   C       10.61681        -1.77591         3.64954
   S       10.22318         1.55067         3.55569
   C       10.33044         2.76968         2.33533
   C       10.43776         4.16300         2.35547
   C       10.49679         4.67654         1.08035
   C       10.62046         6.05892         0.60431
   O       10.64019         6.33251        -0.56584
   O       10.71389         7.01536         1.54650
   S       10.41373         3.46063        -0.16025
   C       10.30539         2.23077         1.03607
   C        9.28023        -1.85407        -2.19871
   C        8.40917        -1.97813        -3.26415
   C        7.50647        -3.10190        -3.60711
   O        7.35781        -4.13650        -3.00138
   H        5.40871        -2.99607        -6.38638
   H        5.60830        -4.38019        -5.17316
   H        8.89067         1.01571        -4.81622
   H        8.11008        -0.44677         0.43823
   H        2.93616        -2.87662        -4.13310
   H        2.39842        -8.26371        -3.07306
   H        2.97535        -9.96614        -1.98052
   H        5.64577         1.20210        -3.45295
   H       10.46810         4.73569         3.26662
   H       10.69604         6.66365         2.44506
   H        9.39576        -2.65170        -1.48218
*
