# ORCA input file
# SCF done       -157.926879963047          0.001091858057
! CAM-B3LYP def2-SVP def2/J RIJCOSX Grid4 TightSCF
%maxcore 5000
%tddft
    Mode sTDDFT
    Ethresh 5.0
    maxcore 5000
end

%pal
  nprocs 6
  end
* xyz 0 1
   C        5.35090         1.54849        -3.68452
   C        4.38832         0.84962        -3.08412
   C        4.60932        -0.26321        -2.21181
   S        6.19975        -0.87177        -1.90603
   C        5.65792        -2.17251        -0.91457
   C        6.63552        -3.02649        -0.27436
   C        6.51781        -3.31700         1.08902
   N        5.57055        -2.75649         1.89293
   C        7.49206        -4.10864         1.76342
   C        8.65553        -4.45614         1.17088
   C        8.88457        -4.07196        -0.17069
   C       10.04566        -4.28066        -0.87106
   S        9.91560        -3.74637        -2.47785
   C        8.24844        -3.28012        -2.26692
   C        7.54493        -2.94235        -3.50812
   C        7.78690        -1.76078        -4.18656
   N        8.74426        -0.87120        -3.75192
   C        7.05625        -1.44297        -5.36785
   C        6.15859        -2.30193        -5.90907
   C        5.99436        -3.58565        -5.33122
   C        5.25162        -4.63962        -5.80648
   S        5.44136        -6.04375        -4.85366
   C        6.50965        -5.23707        -3.74848
   C        7.08709        -5.98218        -2.62539
   C        8.36378        -6.51110        -2.73467
   N        9.07336        -6.40856        -3.90819
   C        8.94260        -7.23010        -1.65320
   C        8.25955        -7.46351        -0.50437
   C        6.93058        -6.99414        -0.38162
   C        6.06068        -7.18516         0.66823
   S        4.52900        -6.49999         0.37440
   C        5.01647        -5.88918        -1.17674
   C        4.13016        -5.12210        -1.98063
   C        2.78588        -5.13430        -1.91030
   C        1.94700        -4.26842        -2.69449
   C        2.38308        -3.29884        -3.63123
   C        1.37013        -2.56095        -4.15904
   C        1.49749        -1.45308        -5.13147
   F        1.28190        -0.23471        -4.58257
   F        2.72794        -1.39731        -5.66558
   F        0.63744        -1.53625        -6.16115
   S       -0.18271        -3.02033        -3.53280
   C        0.56922        -4.24039        -2.55052
   O       -0.11603        -5.07339        -1.77287
   C       -1.48932        -4.81330        -1.57445
   C        6.33941        -6.24016        -1.44958
   C        6.71148        -3.92163        -4.12826
   C        7.84655        -3.43622        -0.94779
   C        4.25759        -2.11057        -0.78398
   C        3.40564        -2.97036        -0.07128
   C        2.05645        -2.70090        -0.02412
   N        1.20645        -3.54969         0.73746
   O        1.71758        -4.43495         1.40163
   O        0.00462        -3.33885         0.69566
   C        1.48506        -1.60546        -0.71665
   C        2.27516        -0.79148        -1.46245
   C        3.67207        -1.01792        -1.52005
   H        5.12760         2.36938        -4.34117
   H        6.39125         1.31592        -3.52993
   H        3.35228         1.10577        -3.25486
   H        5.42846        -3.14217         2.80864
   H        4.83546        -2.19240         1.50930
   H        7.29761        -4.36831         2.79370
   H        9.42001        -5.00513         1.69787
   H       10.95489        -4.72072        -0.51425
   H        9.03871        -0.96211        -2.79248
   H        8.65839         0.07657        -4.07992
   H        7.22752        -0.47639        -5.81841
   H        5.58498        -2.04097        -6.78402
   H        4.62935        -4.66229        -6.67829
   H        8.76082        -5.71199        -4.56558
   H       10.07087        -6.52652        -3.85140
   H        9.95043        -7.59967        -1.77837
   H        8.70272        -8.01473         0.31079
   H        6.24615        -7.70816         1.58510
   H        4.60849        -4.47019        -2.69349
   H        2.27703        -5.79106        -1.21890
   H        3.40921        -3.14691        -3.91279
   H       -2.01507        -4.73962        -2.53217
   H       -1.87212        -5.65429        -0.99989
   H       -1.62352        -3.88997        -1.00330
   H        3.78219        -3.83317         0.45542
   H        0.42242        -1.44190        -0.63367
   H        1.85009         0.03876        -2.00250
*
