# ORCA input file
# SCF done       -168.359738430321          0.000340223638
! CAM-B3LYP def2-SVP def2/J RIJCOSX Grid4 TightSCF
%maxcore 5000
%tddft
    Mode sTDDFT
    Ethresh 5.0
    maxcore 5000
end

%pal
  nprocs 6
  end
* xyz 0 1
   C        3.57494        -2.73084         6.28124
   C        3.61157        -3.99251         5.85731
   C        3.47086        -4.46035         4.50392
   S        4.06099        -6.05105         4.13724
   C        3.55994        -5.92438         2.47069
   C        3.76484        -7.09725         1.68611
   C        3.21875        -7.42253         0.49338
   C        3.47981        -8.64846        -0.18068
   S        4.54570        -9.83796         0.52023
   C        4.33708       -10.92060        -0.82240
   C        5.02170       -12.17011        -0.80126
   C        4.92956       -13.12312        -1.75373
   C        5.60506       -14.38344        -1.74627
   S        6.08862       -15.03042        -3.29226
   C        6.83636       -16.41553        -2.55749
   C        7.47094       -17.37918        -3.39288
   C        8.18337       -18.43945        -2.94914
   C        8.80720       -19.43695        -3.75424
   S       10.14270       -20.31022        -3.03959
   C       10.42594       -21.22163        -4.49093
   C       11.48699       -22.16946        -4.53006
   C       11.72231       -23.02620        -5.54689
   C       12.78567       -23.97184        -5.57365
   S       13.93482       -24.10092        -4.26378
   C       14.74308       -25.39084        -5.05696
   C       14.18065       -25.71035        -6.25621
   C       13.06219       -24.89699        -6.55897
   C       12.25591       -25.08042        -7.80640
   C       13.04264       -25.86934        -8.85025
   C       13.64157       -27.12566        -8.22643
   C       14.69921       -26.78192        -7.17191
   C       16.01781       -26.33236        -7.81076
   C        9.49596       -20.86478        -5.45605
   C        8.56617       -19.88676        -5.03783
   C        7.39162       -19.53729        -5.89870
   C        7.79864       -18.80765        -7.18244
   C        8.37666       -19.77225        -8.21564
   C        9.66856       -20.45493        -7.76256
   O        9.50647       -21.40236        -6.71853
   C        6.67887       -16.36532        -1.17923
   C        5.97682       -15.22655        -0.71702
   C        5.62646       -14.99912         0.72275
   C        4.91251       -16.18703         1.37580
   C        5.83503       -17.36625         1.66830
   C        6.30188       -18.08427         0.40492
   O        7.21516       -17.33741        -0.37782
   C        3.47220       -10.36413        -1.75357
   C        2.97966        -9.09035        -1.39310
   C        1.97872        -8.35480        -2.23101
   C        2.47989        -8.05722        -3.64758
   C        2.46841        -9.29343        -4.54265
   C        3.47096       -10.36291        -4.11185
   O        3.13564       -11.02622        -2.90467
   C        2.99815        -4.68180         2.22448
   C        2.91993        -3.87546         3.38275
   C        2.18701        -2.57133         3.38410
   C        1.20739        -2.53671         2.21588
   C        1.97947        -2.77365         0.92676
   C        2.57044        -4.18927         0.86679
   C        3.75919        -4.18988        -0.10117
   H        3.69627        -2.49975         7.32537
   H        3.45048        -1.89347         5.61992
   H        3.79809        -4.78086         6.57693
   H        4.40718        -7.83529         2.15377
   H        2.53190        -6.75205         0.00308
   H        5.67619       -12.30978         0.04793
   H        4.34346       -12.91690        -2.63780
   H        7.36799       -17.19182        -4.45223
   H        8.36014       -18.53044        -1.88730
   H       12.12922       -22.19111        -3.65822
   H       11.06342       -23.02235        -6.40190
   H       15.59155       -25.84511        -4.58428
   H       11.95974       -24.11054        -8.21210
   H       11.33779       -25.62323        -7.55558
   H       13.83900       -25.24469        -9.25784
   H       12.38102       -26.14339        -9.67450
   H       14.09262       -27.75087        -8.99960
   H       12.84043       -27.70080        -7.75566
   H       14.90834       -27.68041        -6.57864
   H       15.88307       -25.41237        -8.37386
   H       16.39351       -27.10064        -8.48332
   H       16.76436       -26.15002        -7.04158
   H        6.89385       -20.47162        -6.17930
   H        6.68089       -18.94297        -5.32757
   H        6.91920       -18.32354        -7.61247
   H        8.52992       -18.02967        -6.94894
   H        8.59614       -19.23074        -9.13840
   H        7.63787       -20.54402        -8.44296
   H       10.08013       -21.03189        -8.59688
   H       10.40605       -19.69787        -7.46449
   H        6.53791       -14.77734         1.28655
   H        4.96598       -14.13507         0.78683
   H        4.48077       -15.84249         2.31828
   H        4.08990       -16.51322         0.73391
   H        5.30893       -18.09343         2.29049
   H        6.71205       -17.01897         2.21867
   H        6.85349       -18.98893         0.67764
   H        5.43526       -18.37306        -0.20587
   H        1.07181        -8.96394        -2.30147
   H        1.71139        -7.41784        -1.74329
   H        1.83007        -7.30082        -4.09352
   H        3.49029        -7.64316        -3.59914
   H        2.71283        -9.00285        -5.56652
   H        1.46854        -9.73305        -4.54403
   H        3.49852       -11.15847        -4.86267
   H        4.47484        -9.92476        -4.02951
   H        2.89310        -1.74047         3.28686
   H        1.65895        -2.45387         4.33309
   H        0.70181        -1.57003         2.18201
   H        0.45022        -3.31310         2.34609
   H        2.78901        -2.04218         0.86918
   H        1.33464        -2.62049         0.05928
   H        1.79449        -4.86492         0.48685
   H        4.53392        -3.52133         0.26833
   H        3.44097        -3.84082        -1.08145
   H        4.19065        -5.18049        -0.20661
*
