# ORCA input file
# SCF done       -128.342050232213          0.000468817874
! CAM-B3LYP def2-SVP def2/J RIJCOSX Grid4 TightSCF
%maxcore 5000
%tddft
    Mode sTDDFT
    Ethresh 5.0
    maxcore 5000
end

%pal
  nprocs 6
  end
* xyz 0 1
   C        1.32044         5.63569        -1.33024
   C        1.94037         4.28250        -0.97098
   C        2.71588         4.36132         0.29985
   S        4.37258         4.89094         0.32349
   C        4.48932         4.79779         2.04206
   C        3.31224         4.37804         2.59099
   C        2.68039         4.10348         3.86079
   C        3.28556         4.16697         5.17284
   C        4.67439         4.17720         5.33461
   C        5.25062         4.19301         6.58487
   F        6.59833         4.18484         6.66250
   C        4.49643         4.17742         7.75951
   C        5.05439         4.06083         9.08660
   S        6.44509         4.95600         9.62915
   C        6.33312         4.36570        11.26103
   C        7.24989         4.86051        12.32714
   C        6.67334         6.09482        13.02732
   C        5.27370         3.50656        11.35106
   N        4.66863         2.74192        12.31716
   C        3.63320         2.05268        11.73918
   C        3.52566         2.34808        10.40709
   C        2.60303         1.78938         9.43008
   C        1.23069         1.70403         9.65282
   C        0.38223         1.27613         8.65570
   F       -0.94010         1.23899         8.93987
   C        0.82531         0.91197         7.37620
   C       -0.05582         0.54194         6.30440
   S       -1.72882         0.13491         6.59616
   C       -2.06944        -0.19008         4.92964
   C       -3.40636        -0.68346         4.49241
   C       -3.47777        -2.21245         4.54301
   C       -0.93385         0.01566         4.19622
   N       -0.57831        -0.04157         2.87368
   C        0.74240         0.31915         2.77289
   C        1.25977         0.61896         3.99544
   C        0.21334         0.43244         4.94793
   C        2.21205         0.92971         7.18460
   C        3.05618         1.35393         8.18216
   F        4.38504         1.31631         7.93804
   C        4.55757         3.30871        10.12852
   C        3.10835         4.21644         7.60328
   C        2.53603         4.20906         6.35365
   F        1.18230         4.25279         6.30151
   C        1.38856         3.74066         3.56567
   N        1.15983         3.75757         2.21902
   C        2.31110         4.14625         1.58422
   H        0.75174         5.55947        -2.25381
   H        2.10186         6.37991        -1.46300
   H        0.65650         5.97292        -0.53717
   H        2.59987         3.96466        -1.78097
   H        1.14967         3.53484        -0.86234
   H        5.41420         5.08274         2.49900
   H        5.31574         4.13556         4.47119
   H        8.21336         5.11712        11.88403
   H        7.41302         4.06660        13.06119
   H        6.53100         6.89844        12.30866
   H        7.34957         6.43942        13.80572
   H        5.71086         5.86373        13.47838
   H        4.98235         2.62983        13.26467
   H        3.04556         1.36517        12.31787
   H        0.81524         2.00566        10.60161
   H       -3.60393        -0.34136         3.47247
   H       -4.17577        -0.26811         5.14583
   H       -2.71822        -2.65195         3.89983
   H       -4.45537        -2.55694         4.21481
   H       -3.30927        -2.55971         5.55939
   H       -1.16300        -0.34856         2.11731
   H        1.22825         0.33963         1.81526
   H        2.26067         0.95344         4.17649
   H        2.63382         0.60166         6.25126
   H        2.46895         4.25818         8.47021
   H        0.60431         3.44866         4.23537
   H        0.28982         3.51801         1.77876
*
