# ORCA input file
# SCF done       -139.407063692742          0.000457602249
! CAM-B3LYP def2-SVP def2/J RIJCOSX Grid4 TightSCF
%maxcore 5000
%tddft
    Mode sTDDFT
    Ethresh 5.0
    maxcore 5000
end

%pal
  nprocs 6
  end
* xyz 0 2
   C        8.59217        -0.69257        -1.90855
   C        7.36382        -0.86784        -2.37949
   C        6.17171        -1.06111        -1.56113
   C        6.25232        -1.60384        -0.29424
   C        5.11094        -1.80007         0.48989
   C        5.01534        -2.37069         1.80726
   C        6.16076        -2.82214         2.57359
   S        7.52939        -1.77884         2.78879
   C        8.36715        -2.98346         3.73284
   C        9.65799        -2.63886         4.23043
   C       10.34764        -3.25928         5.21092
   C       11.65098        -2.87074         5.63610
   C       12.42571        -3.50157         6.58113
   C       13.67952        -2.90640         6.79970
   C       14.68276        -3.51839         7.72880
   C       14.22779        -3.43471         9.18596
   C       13.86646        -1.79235         6.00835
   C       15.00084        -0.90651         5.89425
   C       15.73719        -0.40334         6.95549
   F       15.34803        -0.67430         8.22238
   C       16.85427         0.42185         6.83065
   C       17.33289         0.82745         5.59476
   C       18.49920         1.64726         5.41316
   S       18.58213         2.70878         4.02998
   C       20.09345         3.33921         4.53904
   C       20.55539         2.75254         5.70440
   C       19.63308         1.74959         6.19581
   C       19.97875         0.92778         7.30799
   C       21.10085         1.08681         8.03524
   S       22.30018         2.30305         7.77402
   C       21.74733         3.07023         6.34486
   C       16.56405         0.42190         4.47381
   N       16.78352         0.74521         3.20231
   S       15.66210         0.03895         2.28398
   N       14.85215        -0.71528         3.45274
   C       15.41998        -0.43542         4.62347
   S       12.49790        -1.50745         4.96932
   C        7.61165        -4.13532         3.83025
   C        6.35666        -4.03388         3.19040
   C        5.37334        -5.16308         3.11849
   C        5.78875        -6.37002         3.96243
   O        5.36578        -6.13050         5.28912
   C        7.29976        -6.59612         3.87349
   C        8.04959        -5.40988         4.47686
   C        3.72855        -2.42501         2.24137
   S        2.57502        -1.81703         1.10889
   C        3.84715        -1.45741        -0.01648
   C        3.74473        -0.91535        -1.29022
   S        2.29912        -0.41885        -2.11472
   C        3.23413         0.06621        -3.48603
   C        4.55990        -0.13601        -3.33249
   C        4.89583        -0.71094        -2.07176
   H        9.43216        -0.56082        -2.56878
   H        8.80612        -0.65665        -0.85386
   H        7.20104        -0.86069        -3.44889
   H        7.21001        -1.90531         0.09820
   H       10.10604        -1.76384         3.77412
   H        9.92578        -4.09574         5.74653
   H       12.10250        -4.38960         7.09622
   H       15.65270        -3.03433         7.61497
   H       14.80240        -4.57090         7.45348
   H       14.12826        -2.39737         9.49143
   H       14.95487        -3.91897         9.83352
   H       13.26656        -3.92643         9.31426
   H       17.30692         0.77873         7.74176
   H       20.57947         4.09980         3.96346
   H       19.32573         0.10484         7.55593
   H       21.34053         0.44199         8.86424
   H       22.39886         3.84158         5.97499
   H        5.25987        -5.47086         2.07531
   H        4.39729        -4.83511         3.47630
   H        5.26729        -7.26228         3.57308
   H        5.67824        -6.84834         5.85017
   H        7.57278        -6.71551         2.82369
   H        7.57332        -7.51312         4.40240
   H        9.12449        -5.54681         4.34292
   H        7.83945        -5.35986         5.55019
   H        3.37467        -2.77040         3.19269
   H        2.72340         0.47995        -4.33347
   H        5.28105         0.12004        -4.08721
*
