# ORCA input file
# SCF done       -133.897098189787          0.000570371029
! CAM-B3LYP def2-SVP def2/J RIJCOSX Grid4 TightSCF
%maxcore 5000
%tddft
    Mode sTDDFT
    Ethresh 5.0
    maxcore 5000
end

%pal
  nprocs 6
  end
* xyz 0 1
   O       -3.11033         0.57666         0.72151
   C       -2.14259        -0.09388         0.96737
   C       -1.69558        -1.36073         0.38777
   C       -0.54106        -1.74900         0.98655
   C        0.32963        -2.86109         0.88157
   S        1.49836        -3.05888         2.14684
   C        2.09677        -4.53442         1.49127
   C        3.22167        -5.17622         2.08910
   S        4.56796        -5.67345         1.12241
   C        5.52961        -6.08536         2.49106
   C        6.86392        -6.56110         2.30584
   S        7.19436        -7.76100         1.09959
   C        8.86151        -7.82228         1.51859
   N        9.74868        -8.64010         0.82937
   C       10.88134        -8.17221         0.14902
   O       11.18569        -7.02142         0.02143
   C       11.53874        -9.39534        -0.38908
   C       10.80645       -10.46083        -0.07681
   C        9.61274       -10.02430         0.69902
   O        8.70097       -10.67171         1.13107
   C        9.17260        -6.94389         2.54255
   C       10.41723        -6.72498         3.18337
   F       11.46339        -7.50734         2.85046
   C       10.55960        -5.76411         4.13506
   C        9.45968        -4.95726         4.49193
   C        8.23712        -5.16988         3.93096
   F        7.20804        -4.36947         4.26896
   C        8.03014        -6.19185         2.97369
   C        4.81240        -5.89892         3.67558
   C        5.17807        -6.25207         4.99418
   F        6.36402        -6.85062         5.21288
   C        4.33588        -6.04701         6.04680
   C        3.05720        -5.50813         5.82743
   C        2.65128        -5.19595         4.56300
   F        1.38699        -4.76943         4.37517
   C        3.50343        -5.36081         3.44794
   C        1.43434        -4.86530         0.29767
   C        1.58372        -6.01917        -0.49959
   F        2.44598        -6.98372        -0.12076
   C        0.85753        -6.20483        -1.64111
   C       -0.06133        -5.22612        -2.03885
   C       -0.26696        -4.11690        -1.26537
   F       -1.15776        -3.20983        -1.70431
   C        0.43094        -3.90528        -0.05800
   C       -0.20605        -0.70590         2.01962
   O        0.74759        -0.70843         2.76183
   N       -1.18516         0.23353         1.94218
   H       -2.25942        -1.84881        -0.38007
   H       12.45776        -9.34277        -0.94232
   H       10.98037       -11.49497        -0.30917
   H       11.51602        -5.61396         4.60792
   H        9.58279        -4.16883         5.21609
   H        4.64471        -6.32777         7.04014
   H        2.37806        -5.36858         6.65238
   H        0.99786        -7.09831        -2.22639
   H       -0.62179        -5.34196        -2.95206
   H       -1.23067         1.06050         2.51778
*
