# ORCA input file
# SCF done       -167.876611105825          0.000720970989
! CAM-B3LYP def2-SVP def2/J RIJCOSX Grid4 TightSCF
%maxcore 5000
%tddft
    Mode sTDDFT
    Ethresh 5.0
    maxcore 5000
end

%pal
  nprocs 6
  end
* xyz 0 1
   C        4.00485        -4.40064       -10.68466
   S        4.52111        -5.23143        -9.26154
   C        5.13392        -6.60124       -10.15992
   C        4.92300        -6.38747       -11.51145
   C        4.28403        -5.13407       -11.79252
   S        4.07321        -4.96586       -13.50922
   C        4.83970        -6.54921       -13.67669
   N        5.20871        -7.13672       -12.60891
   C        5.74631        -7.72790        -9.56274
   C        5.95973        -7.84211        -8.22792
   C        6.55223        -8.90643        -7.50974
   S        6.97984        -8.59017        -5.86307
   C        7.62276       -10.17340        -5.59139
   C        7.50909       -10.94319        -6.76320
   C        6.88428       -10.23170        -7.84211
   C        6.60615       -10.90338        -9.04751
   C        6.97724       -12.20848        -9.18925
   F        6.70756       -12.86090       -10.33133
   C        7.62737       -12.89456        -8.14411
   F        7.97393       -14.18136        -8.32741
   C        7.87886       -12.28964        -6.94785
   C        8.04038       -10.46216        -4.26711
   C        8.69311       -11.54494        -3.78016
   C        8.86386       -11.73515        -2.37589
   C        9.48324       -12.78290        -1.79712
   C       10.15416       -13.87781        -2.56262
   C        9.35280       -12.98867        -0.30979
   N        8.30179       -13.97749        -0.11971
   C        8.55333       -15.29672        -0.01250
   C        7.74735       -16.25935        -0.54120
   C        7.95969       -17.63963        -0.41268
   C        7.37715       -18.56515        -1.24236
   C        7.56238       -19.96578        -1.26044
   C        7.00789       -20.59072        -2.33822
   C        6.36684       -19.71043        -3.23830
   S        6.39143       -18.08212        -2.62256
   C        5.90688       -19.97877        -4.51646
   C        6.01325       -21.16906        -5.25976
   C        5.73007       -21.00822        -6.58509
   C        5.40786       -19.68295        -6.96045
   S        5.32991       -18.67873        -5.54138
   C        5.16849       -19.27742        -8.26598
   C        4.95095       -18.02154        -8.81343
   C        5.07226       -16.72591        -8.33130
   C        4.32623       -15.66413        -9.04834
   O        3.72403       -15.77376       -10.09514
   C        4.41901       -14.46094        -8.19114
   C        3.85572       -13.23137        -8.35506
   C        4.01149       -12.26122        -7.33590
   C        4.71992       -12.60781        -6.15092
   C        4.80573       -11.66588        -5.10928
   C        4.22614       -10.43777        -5.26332
   C        3.56234       -10.06198        -6.43601
   C        3.45930       -10.97109        -7.45344
   F        4.30162        -9.54209        -4.25443
   C        5.33658       -13.87702        -6.03353
   C        5.21016       -14.77824        -7.05195
   C        5.76580       -16.11929        -7.24415
   C        6.91738       -16.56888        -6.62361
   C        7.62961       -17.70266        -7.05507
   N        8.23949       -18.61618        -7.39156
   C        7.57352       -15.85342        -5.61343
   N        8.13842       -15.29863        -4.77726
   H        3.53744        -3.44128       -10.60161
   H        4.96965        -6.96322       -14.65715
   H        6.06432        -8.48068       -10.26626
   H        5.67197        -6.99581        -7.61267
   H        6.08302       -10.42108        -9.85370
   H        8.33605       -12.86780        -6.16481
   H        7.76287        -9.69263        -3.55409
   H        9.06401       -12.31946        -4.42864
   H        8.41301       -10.98260        -1.73915
   H       10.58748       -14.61426        -1.89017
   H       10.94969       -13.47253        -3.18614
   H        9.45112       -14.39043        -3.22008
   H        9.05892       -12.06372         0.19423
   H       10.27426       -13.36474         0.13826
   H        7.45776       -13.75007        -0.63365
   H        9.44928       -15.55984         0.53489
   H        6.92625       -15.94761        -1.17453
   H        8.66372       -17.99632         0.32737
   H        8.12041       -20.46707        -0.48894
   H        7.07051       -21.64718        -2.52664
   H        6.33268       -22.09451        -4.81567
   H        5.79798       -21.79252        -7.31761
   H        5.10566       -20.10125        -8.96776
   H        4.53713       -18.03648        -9.81890
   H        3.28937       -12.99980        -9.24452
   H        5.32813       -11.91299        -4.19801
   H        3.14146        -9.07192        -6.51089
   H        2.94269       -10.70885        -8.36441
   H        5.88322       -14.10555        -5.13231
*
