# ORCA input file
# SCF done       -174.993078283978          0.000906551501
! CAM-B3LYP def2-SVP def2/J RIJCOSX Grid4 TightSCF
%maxcore 5000
%tddft
    Mode sTDDFT
    Ethresh 5.0
    maxcore 5000
end

%pal
  nprocs 6
  end
* xyz 0 1
   C       -4.45884         9.45916         4.53527
   C       -3.63858         9.31805         5.61831
   C       -3.65820        10.17551         6.73898
   N       -3.65419        10.83176         7.67970
   C       -2.60581         8.35802         5.68975
   N       -1.70938         7.64474         5.75905
   C       -5.36098        10.56419         4.27175
   C       -5.72605        10.52901         2.90338
   C       -6.53737        11.48133         2.33527
   C       -7.02198        12.50230         3.15880
   C       -6.66143        12.51881         4.52903
   C       -5.83157        11.56533         5.10188
   S       -7.37665        13.86421         5.36228
   C       -8.13619        14.38281         3.88114
   C       -7.87041        13.58980         2.81573
  Br       -9.21060        15.91840         3.88189
   C       -5.08555         9.37242         2.23678
   O       -5.07798         9.14776         1.05404
   C       -4.45624         8.59469         3.35447
   C       -4.11346         7.29099         3.39059
   C       -4.08636         6.31538         2.31684
   N       -3.95618         5.04939         2.73010
   C       -3.89344         4.12137         1.79100
   C       -3.95934         4.42042         0.44233
   C       -4.08875         5.77770         0.09654
   N       -4.14122         6.70510         1.05781
   C       -4.14125         6.28669        -1.24505
   C       -3.85337         5.56845        -2.35785
   C       -3.83461         6.09409        -3.66435
   C       -3.41688         5.37306        -4.74989
   C       -3.33794         5.80221        -6.10102
   C       -2.86159         4.86345        -6.95949
   C       -2.52067         3.63537        -6.34233
   S       -2.85393         3.71255        -4.62454
   C       -2.00128         2.49273        -6.90121
   C       -1.77821         2.21984        -8.27589
   C       -1.29709         0.97317        -8.50340
   C       -1.08576         0.20706        -7.31970
   S       -1.51812         1.12734        -5.90369
   C       -0.63229        -1.07102        -7.22042
   C       -0.41747        -1.67621        -5.94383
   N       -0.04183        -2.96268        -5.91297
   C        0.16744        -3.49389        -4.72793
   C        0.05303        -2.76441        -3.55195
   C       -0.31999        -1.41727        -3.67114
   N       -0.58451        -0.90215        -4.86844
   C       -0.34951        -0.57807        -2.49237
   C       -0.53980         0.75840        -2.47719
   C       -0.40764         1.47633        -1.25586
   C       -0.38135         2.80759        -0.98989
   C       -0.43289         4.01258        -1.79798
   C       -0.06234         4.15577        -3.10863
   C       -0.18185         5.36106        -3.83323
   N       -0.29295         6.29372        -4.49393
   C        0.59969         3.18176        -3.88623
   N        1.21821         2.49000        -4.56138
   C       -0.75881         5.11962        -0.90272
   C       -0.67271         4.66838         0.44010
   C       -0.42072         3.22055         0.44685
   O       -0.31007         2.48584         1.40120
   C       -0.81496         5.50941         1.51803
   C       -1.09705         6.85357         1.26035
   C       -1.24686         7.28411        -0.08052
   C       -1.06302         6.44165        -1.17025
   S       -1.68326         8.95880        -0.16478
   C       -1.62026         9.06588         1.56905
   C       -1.29962         7.90763         2.19176
  Br       -1.98616        10.70203         2.40151
   H       -6.78914        11.44193         1.28720
   H       -5.58100        11.61400         6.14860
   H       -8.25655        13.76369         1.82807
   H       -3.85142         6.84543         4.34289
   H       -3.78242         3.10355         2.14240
   H       -3.91774         3.64339        -0.30266
   H       -4.38242         7.33793        -1.31498
   H       -3.57851         4.52401        -2.26663
   H       -4.14024         7.11946        -3.81686
   H       -3.63252         6.79680        -6.38432
   H       -2.72767         5.01785        -8.01504
   H       -1.99561         2.93840        -9.04639
   H       -1.07494         0.56587        -9.47394
   H       -0.40766        -1.65772        -8.09598
   H        0.45022        -4.53916        -4.72038
   H        0.25846        -3.20612        -2.59077
   H       -0.11625        -1.08885        -1.56552
   H       -0.77541         1.27171        -3.39470
   H       -0.32684         0.86240        -0.36092
   H       -0.72239         5.14216         2.52815
   H       -1.16675         6.82192        -2.17258
   H       -1.20778         7.79150         3.25706
*
