# ORCA input file
# SCF done       -221.765537179023          0.000931645622
! CAM-B3LYP def2-SVP def2/J RIJCOSX Grid4 TightSCF
%maxcore 5000
%tddft
    Mode sTDDFT
    Ethresh 5.0
    maxcore 5000
end

%pal
  nprocs 6
  end
* xyz 0 1
   C      -12.41728         4.22002        -6.13514
   C      -11.54322         3.75185        -7.08585
   C      -11.84649         2.73032        -8.00733
   N      -12.03195         1.89916        -8.77775
   C      -10.22603         4.22092        -7.25368
   N       -9.14263         4.56473        -7.42297
   C      -13.78461         3.75210        -5.92504
   C      -14.34740         4.44759        -4.82296
   C      -15.62812         4.22343        -4.38066
   C      -16.39328         3.26606        -5.05585
   C      -15.82479         2.57750        -6.15348
   C      -14.52874         2.80520        -6.60196
   S      -16.94218         1.43940        -6.84135
   C      -18.14166         1.89676        -5.66109
   C      -17.72839         2.85316        -4.79570
  Br      -19.82395         1.06797        -5.68219
   C      -13.34674         5.38482        -4.29381
   O      -13.46691         6.15534        -3.34865
   C      -12.15859         5.22914        -5.13730
   C      -11.02472         5.97809        -4.93686
   N      -10.95085         6.85122        -3.92345
   C       -9.87233         7.60711        -3.56361
   S      -10.16079         9.10890        -2.73873
   C       -8.45556         9.41458        -2.74189
   N       -7.99901        10.59720        -2.14207
   O       -6.80193        10.81009        -2.15301
   O       -8.84426        11.32391        -1.65076
   C       -7.72178         8.42170        -3.33282
   C       -8.51676         7.35680        -3.80249
   C       -8.00626         6.13342        -4.37101
   C       -6.82765         6.02123        -5.00900
   C       -6.31622         4.83433        -5.64778
   C       -5.14565         4.92844        -6.37142
   C       -4.66737         3.82564        -7.10044
   C       -3.55208         3.68653        -7.92427
   C       -2.49392         4.71501        -8.12606
   C       -1.06423         4.14477        -7.94356
   N       -0.50619         3.58611        -9.16756
   C       -2.67476         5.44453        -9.47247
   N       -1.97894         6.71829        -9.43325
   C       -3.62423         2.36214        -8.49290
   C       -2.86535         1.75236        -9.42444
   C       -3.13213         0.34859        -9.84533
   C       -4.32409        -0.28840        -9.19409
   C       -5.09230         0.35387        -8.29273
   C       -4.79990         1.68593        -7.92598
   C       -5.43040         2.58902        -7.08906
   C       -6.59701         2.50024        -6.29962
   C       -7.01548         3.58525        -5.59885
   C       -1.93463        -0.49692        -9.49355
   C       -1.60572        -1.64595       -10.10679
   C       -0.43829        -2.41990        -9.83245
   C        0.74627        -1.93300        -9.35747
   C        1.94887        -2.65848        -9.13326
   C        3.02101        -1.88826        -8.79768
   C        2.73226        -0.50697        -8.74161
   S        1.04361        -0.22260        -9.07401
   C        3.56292         0.57350        -8.49640
   C        4.92057         0.63368        -8.13495
   C        5.39641         1.91045        -7.99482
   C        4.44346         2.91618        -8.25382
   S        2.91002         2.18772        -8.66067
   C        4.60655         4.29383        -8.22546
   C        3.56321         5.12870        -8.59193
   C        3.39765         6.50029        -8.59988
   C        2.01845         6.98438        -8.78314
   O        1.05979         6.31400        -9.13504
   C        2.03237         8.41042        -8.43339
   C        0.99046         9.28651        -8.33923
   C        1.24959        10.61826        -7.94234
   C        2.58780        11.00927        -7.64996
   C        2.83992        12.33630        -7.25390
   C        1.79897        13.21825        -7.15991
   C        0.47636        12.85254        -7.44058
   C        0.21390        11.56678        -7.82588
   F        2.03991        14.48879        -6.78421
   C        3.64680        10.07478        -7.75765
   C        3.37478         8.79303        -8.14745
   C        4.24752         7.63201        -8.35728
   C        5.61857         7.70231        -8.44866
   C        6.45883         6.66267        -8.88549
   N        7.19943         5.87455        -9.27481
   C        6.36639         8.87155        -8.20826
   N        7.03929         9.78106        -8.00773
   H      -16.02865         4.76799        -3.54006
   H      -14.14186         2.25612        -7.44407
   H      -18.33862         3.25178        -4.00598
   H      -10.17281         5.90818        -5.59778
   H      -11.83536         6.96183        -3.40243
   H       -6.64922         8.45366        -3.38870
   H       -8.64420         5.26928        -4.25701
   H       -6.21788         6.90700        -5.13183
   H       -4.60912         5.86588        -6.40794
   H       -2.62776         5.47663        -7.35167
   H       -1.11038         3.35286        -7.19035
   H       -0.43210         4.95066        -7.54527
   H        0.26208         2.96339        -8.94136
   H       -0.11892         4.33966        -9.72744
   H       -3.74144         5.65288        -9.61087
   H       -2.35284         4.77573       -10.28416
   H       -0.97819         6.56974        -9.33079
   H       -2.12687         7.22234       -10.30103
   H       -1.99828         2.24811        -9.84261
   H       -3.26529         0.32278       -10.93632
   H       -4.52869        -1.30876        -9.47997
   H       -5.94804        -0.13716        -7.85173
   H       -7.15041         1.57311        -6.26646
   H       -7.90295         3.50882        -4.99094
   H       -1.38026        -0.15788        -8.63180
   H       -2.25977        -2.04180       -10.87489
   H       -0.46383        -3.46713       -10.10383
   H        1.98147        -3.72806        -9.24457
   H        4.01095        -2.26849        -8.61905
   H        5.51090        -0.25261        -7.98384
   H        6.40916         2.15598        -7.72907
   H        5.56519         4.67476        -7.91454
   H        2.64450         4.61522        -8.87313
   H       -0.01895         8.96930        -8.55779
   H        3.84651        12.65371        -7.03032
   H       -0.30427        13.59065        -7.34642
   H       -0.79715        11.25915        -8.04686
   H        4.64563        10.40222        -7.51822
*
