# ORCA input file
# SCF done       -126.956939639829          0.000658117058
! CAM-B3LYP def2-SVP def2/J RIJCOSX Grid4 TightSCF
%maxcore 5000
%tddft
    Mode sTDDFT
    Ethresh 5.0
    maxcore 5000
end

%pal
  nprocs 6
  end
* xyz 0 1
   C        6.24485       -13.21518        -9.99060
   C        6.54964       -13.98302        -8.93702
   C        7.19732       -15.26460        -8.94093
   C        7.37644       -15.80679        -7.71771
   C        6.89081       -15.00682        -6.64404
   S        6.18621       -13.52381        -7.26574
   C        6.93425       -15.29335        -5.30468
   C        7.45558       -16.44790        -4.66430
   C        7.34250       -16.44211        -3.31255
   C        6.72547       -15.27650        -2.78356
   S        6.29230       -14.18318        -4.10547
   C        6.46909       -14.98365        -1.48062
   N        5.87899       -13.81736        -1.10647
   C        5.55133       -13.42638         0.14322
   S        5.95686       -14.39122         1.52865
   C        5.31620       -13.14781         2.56193
   N        5.35633       -13.37508         3.93123
   O        4.91489       -12.50933         4.67083
   O        5.83889       -14.43914         4.29859
   C        4.83213       -12.06662         1.86928
   C        4.93617       -12.20963         0.47698
   C        4.47920       -11.19851        -0.44775
   C        4.07509       -11.37228        -1.71960
   C        3.66226       -10.28041        -2.55530
   C        3.26527       -10.38710        -3.83220
   C        3.19905       -11.68778        -4.57539
   C        2.82710        -9.16720        -4.60610
   N        1.45107        -9.24841        -5.04258
   C        0.39147        -9.15883        -4.19946
   C        0.39760        -8.81232        -2.89770
   C       -0.83192        -8.68767        -2.14390
   C       -0.88252        -8.39060        -0.82318
   N       -1.95141        -9.03448        -2.85878
   N       -3.09511        -8.58796        -2.52666
   C       -4.08293        -8.94072        -3.38271
   S       -5.76724        -8.66868        -3.00671
   C       -6.31375        -9.18008        -4.55150
   C       -5.25487        -9.53628        -5.35612
   C       -4.00156        -9.40640        -4.68386
   O       -2.97845        -9.72925        -5.49378
   C       -3.55560       -10.07166        -6.67641
   N       -2.68613       -10.45238        -7.72317
   O       -3.20100       -10.75875        -8.78193
   O       -1.49225       -10.44267        -7.49676
   C       -4.92325        -9.98244        -6.66584
   H        6.48347       -13.53581       -10.98920
   H        5.75544       -12.26535        -9.87761
   H        7.49997       -15.72059        -9.86682
   H        7.84434       -16.75842        -7.53751
   H        7.89729       -17.24863        -5.22938
   H        7.68050       -17.23218        -2.66628
   H        6.71715       -15.68078        -0.69472
   H        5.71073       -13.13840        -1.84311
   H        4.40093       -11.21466         2.36312
   H        4.43827       -10.20134        -0.02795
   H        3.99458       -12.35870        -2.15257
   H        3.69860        -9.30073        -2.09634
   H        2.49588       -12.37151        -4.10151
   H        4.17578       -12.17056        -4.59856
   H        2.87980       -11.53095        -5.60193
   H        3.45197        -9.05807        -5.49838
   H        2.94280        -8.26872        -3.99399
   H        1.27566        -9.72114        -5.91454
   H       -0.55905        -9.36274        -4.67257
   H        1.30818        -8.60670        -2.36037
   H        0.01294        -8.25075        -0.24497
   H       -1.82641        -8.35687        -0.30871
   H       -7.36123        -9.19160        -4.77159
   H       -5.57580       -10.19841        -7.48619
*
