# ORCA input file
# SCF done       -173.057307947916          0.000450089460
! CAM-B3LYP def2-SVP def2/J RIJCOSX Grid4 TightSCF
%maxcore 5000
%tddft
    Mode sTDDFT
    Ethresh 5.0
    maxcore 5000
end

%pal
  nprocs 6
  end
* xyz 0 1
   C       13.49312        -6.63561        -9.87268
   C       12.20314        -6.99758        -9.84556
   C       11.27582        -7.02945       -10.94017
   C       10.03393        -7.44500       -10.60676
   C        9.87610        -7.77271        -9.23086
   S       11.38057        -7.53099        -8.37035
   C        8.73656        -8.22704        -8.60739
   C        7.46729        -8.48098        -9.17810
   C        6.54978        -8.94751        -8.28980
   C        7.02942        -9.08841        -6.96114
   S        8.70667        -8.58880        -6.89119
   C        6.29411        -9.63894        -5.93734
   C        6.62031        -9.86757        -4.59595
   S        5.64795       -11.07155        -3.75912
   C        6.56767       -10.95325        -2.27934
   C        7.54024        -9.98615        -2.44079
   C        7.58814        -9.35763        -3.71636
   C        8.55705        -8.33010        -3.74016
   C        9.23072        -8.21404        -2.55895
   C       10.28904        -7.25681        -2.25841
   O       10.69646        -6.41582        -3.02225
   O       10.75763        -7.42713        -1.00907
   C       11.79671        -6.54845        -0.61124
   S        8.71370        -9.35001        -1.33386
   C        6.35093       -11.76957        -1.14608
   C        5.41957       -12.74538        -1.06715
   N        5.29497       -13.54980         0.02876
   C        4.50169       -14.63811         0.13972
   S        3.42765       -15.11558        -1.13586
   C        3.02515       -16.55199        -0.23907
   N        2.09958       -17.42126        -0.80513
   O        1.81024       -18.43279        -0.18606
   O        1.63948       -17.10342        -1.89379
   C        3.69132       -16.64959         0.95546
   C        4.52518       -15.54874         1.20966
   C        5.32504       -15.40927         2.39714
   C        5.61980       -14.24180         3.01635
   C        6.46833       -14.12611         4.14228
   S        7.50486       -15.42629         4.67365
   C        8.18457       -14.48908         5.99091
   C        7.59131       -13.23605         5.99817
   C        6.64476       -13.01233         4.96460
   C        6.09385       -11.71163         5.02715
   C        6.60474       -10.98763         6.06446
   C        6.28048        -9.62017         6.46438
   O        6.76706        -9.05118         7.41059
   O        5.36887        -9.06589         5.64502
   C        4.98304        -7.73770         5.96727
   S        7.78906       -11.85088         7.02111
   C        9.18775       -14.97886         6.84241
   C        9.80905       -16.18635         6.68698
   C       10.83641       -16.65350         7.51316
   C       11.52244       -17.82572         7.30386
   C       12.58073       -18.34581         8.08871
   C       13.10186       -19.51416         7.62653
   C       12.48622       -19.98966         6.44331
   S       11.20685       -18.89772         5.94884
   C       12.79819       -21.11960         5.72321
   C       13.81573       -22.07215         6.00831
   C       13.90226       -23.08056         5.11259
   C       12.95192       -23.00417         4.04039
   S       11.94521       -21.56361         4.25909
   C       12.80267       -23.85177         3.01318
   H       13.95601        -6.31919       -10.79073
   H       14.10195        -6.64822        -8.98739
   H       11.58374        -6.73843       -11.92873
   H        9.21573        -7.52988       -11.29964
   H        7.27026        -8.32017       -10.22260
   H        5.53544        -9.20181        -8.54263
   H        5.32877       -10.03249        -6.23545
   H        8.76111        -7.67710        -4.56649
   H       11.46822        -5.51026        -0.69482
   H       12.67525        -6.69006        -1.24437
   H       12.02526        -6.79702         0.42182
   H        7.02204       -11.59116        -0.31521
   H        4.73409       -12.94013        -1.87890
   H        5.96681       -13.41628         0.77791
   H        3.55703       -17.47857         1.62626
   H        5.68320       -16.33126         2.83580
   H        5.15112       -13.31821         2.69895
   H        5.35459       -11.31948         4.35325
   H        4.37518        -7.38793         5.13682
   H        5.86467        -7.10661         6.09488
   H        4.40548        -7.72683         6.89393
   H        9.48565       -14.31614         7.64481
   H        9.50828       -16.81954         5.86029
   H       11.12815       -16.05067         8.36321
   H       12.92370       -17.83359         8.97062
   H       13.91007       -20.04400         8.09785
   H       14.44968       -21.97228         6.87150
   H       14.60910       -23.88979         5.16214
   H       13.43662       -24.71553         2.91763
   H       12.05311       -23.69930         2.25858
*
