# ORCA input file
# SCF done       -164.563917753422          0.000818209751
! CAM-B3LYP def2-SVP def2/J RIJCOSX Grid4 TightSCF
%maxcore 5000
%tddft
    Mode sTDDFT
    Ethresh 5.0
    maxcore 5000
end

%pal
  nprocs 6
  end
* xyz 0 1
   C      -17.97048        12.45430        -1.04915
   S      -16.42195        12.97785        -1.58258
   C      -15.61784        12.01343        -0.37780
   C      -16.55647        11.32710         0.38829
   C      -17.89305        11.58996        -0.00800
   C      -16.26679        10.45970         1.45018
   N      -16.07845         9.74138         2.32705
   C      -14.20054        12.02984        -0.31281
   C      -13.45265        11.31943         0.56905
   C      -12.04382        11.33779         0.63378
   S      -11.06713        12.28414        -0.43818
   C       -9.57720        11.72748         0.25089
   C       -9.83081        10.86104         1.32538
   C      -11.22864        10.62983         1.53176
   C      -11.66147         9.77648         2.56579
   C      -10.72998         9.20213         3.38004
   F      -11.11323         8.38627         4.37306
   C       -9.35235         9.47300         3.21438
   F       -8.47298         8.92515         4.07093
   C       -8.90150        10.28500         2.21593
   C       -8.36438        12.18490        -0.33210
   C       -7.14992        11.59552        -0.24565
   C       -5.97767        12.15708        -0.84135
   C       -4.75337        11.60149        -0.82575
   C       -4.44437        10.26207        -0.23067
   C       -3.55598        12.30943        -1.40755
   N       -3.73764        13.72889        -1.54754
   C       -3.26285        14.45690        -2.56708
   C       -3.31542        15.82120        -2.61638
   C       -2.79437        16.64256        -3.62930
   C       -2.11410        16.31790        -4.78069
   C       -1.55624        17.25928        -5.67770
   C       -0.87669        16.71547        -6.72794
   C       -0.87323        15.30609        -6.73443
   S       -1.75466        14.69523        -5.36269
   C       -0.26781        14.45277        -7.64527
   C        0.52840        14.79614        -8.75123
   C        1.02959        13.71786        -9.42789
   C        0.65506        12.47153        -8.88622
   S       -0.40397        12.71346        -7.51892
   C        0.95145        11.18629        -9.31840
   C        1.88433        10.79281       -10.26870
   C        2.98704        11.43356       -10.81559
   C        3.49091        10.95472       -12.11931
   O        3.13028         9.96597       -12.72636
   C        4.49049        11.95515       -12.55226
   C        5.18383        12.03320       -13.72307
   C        6.08346        13.10683       -13.92161
   C        6.24274        14.07993       -12.89409
   C        7.13778        15.14764       -13.09768
   C        7.83339        15.22615       -14.27186
   C        7.69093        14.28031       -15.29436
   C        6.82485        13.23714       -15.11250
   F        8.69215        16.24800       -14.46699
   C        5.51320        13.96753       -11.68578
   C        4.65253        12.91875       -11.51725
   C        3.80116        12.53050       -10.39007
   C        3.93275        13.02967        -9.10933
   C        3.33928        12.45222        -7.97544
   N        2.92477        11.99721        -7.00459
   C        4.73710        14.12860        -8.76573
   N        5.33967        15.04612        -8.42282
   H      -18.84954        12.81994        -1.54107
   H      -18.74444        11.14433         0.47462
   H      -13.70319        12.66607        -1.03417
   H      -13.94755        10.68313         1.28652
   H      -12.70783         9.57731         2.73012
   H       -7.84890        10.49825         2.14812
   H       -8.46114        13.07319        -0.94547
   H       -7.04216        10.66061         0.27821
   H       -6.11169        13.11368        -1.33062
   H       -4.29120        10.34881         0.84583
   H       -3.53447         9.85525        -0.66521
   H       -5.25144         9.55539        -0.40121
   H       -3.32663        11.89211        -2.39440
   H       -2.68926        12.10595        -0.76002
   H       -4.09721        14.21698        -0.73899
   H       -2.82992        13.88683        -3.37443
   H       -3.77713        16.33408        -1.78215
   H       -2.91459        17.70737        -3.46969
   H       -1.66294        18.31726        -5.51249
   H       -0.38356        17.28888        -7.49145
   H        0.72395        15.81839        -9.02248
   H        1.61452        13.79621       -10.32597
   H        0.34214        10.39869        -8.89378
   H        1.71330         9.81310       -10.70763
   H        5.05210        11.28525       -14.49066
   H        7.27522        15.89329       -12.33003
   H        8.26548        14.39380       -16.20002
   H        6.69761        12.49458       -15.88614
   H        5.65281        14.72098       -10.92686
*
