# ORCA input file
# SCF done       -175.048466652482          0.000468785487
! CAM-B3LYP def2-SVP def2/J RIJCOSX Grid4 TightSCF
%maxcore 5000
%tddft
    Mode sTDDFT
    Ethresh 5.0
    maxcore 5000
end

%pal
  nprocs 6
  end
* xyz 0 1
   C       -1.10088        -0.87879        -2.69625
   S       -1.16609         0.81904        -2.91179
   C        0.47880         0.82732        -3.45489
   C        1.36676         1.82538        -3.87657
   C        2.59103         1.30460        -4.20340
   C        3.74019         2.09395        -4.67688
   O        3.67418         3.28502        -4.81453
   O        4.86942         1.42072        -4.94815
   S        2.65098        -0.43405        -3.99161
   C        1.01518        -0.45745        -3.45727
   C        0.10794        -1.46278        -3.01616
   C        0.37738        -2.86513        -2.90066
   C       -0.47221        -3.83250        -2.41988
   C        0.17566        -5.09720        -2.48077
   C        1.52149        -4.84315        -3.02929
   C        1.62847        -3.51006        -3.26941
   C        2.55859        -5.76936        -3.19100
   N        3.45379        -6.48047        -3.29993
   C       -0.33173        -6.31856        -2.09410
   C        0.27112        -7.59488        -2.23968
   C       -0.53193        -8.55113        -1.63988
   C       -1.70383        -7.87324        -1.10953
   C       -1.60873        -6.54763        -1.39863
   C       -2.56958        -5.58931        -1.06001
   N       -3.37989        -4.82871        -0.76785
   C       -0.21130        -9.93155        -1.60876
   N       -0.68109       -10.87858        -0.73480
   C       -1.58982       -10.70520         0.37416
   C       -3.02853       -11.02356        -0.02630
   C       -0.11843       -12.14495        -0.97980
   O       -0.37053       -13.12501        -0.30745
   C        0.75025       -11.94181        -2.11820
   C        0.68433       -10.58077        -2.47051
   C        1.50270       -10.38144        -3.65389
   O        1.72304        -9.40886        -4.33844
   N        2.03215       -11.65960        -3.92232
   C        2.96513       -11.86319        -5.00561
   C        4.40797       -11.90118        -4.50979
   C        1.60336       -12.60044        -3.02140
   C        1.96687       -13.96001        -3.06040
   C        1.52263       -14.86131        -2.13313
   C        1.83955       -16.23604        -2.12907
   C        2.61546       -16.96977        -3.01107
   C        2.63020       -18.32859        -2.60298
   C        1.80383       -18.40116        -1.38173
   C        1.34203       -17.15362        -1.11284
   C        1.53350       -19.54148        -0.61649
   N        1.29323       -20.45731         0.03396
   C        3.27250       -19.38510        -3.21511
   C        3.27044       -20.74854        -2.81834
   C        4.03175       -21.48088        -3.70240
   C        4.55142       -20.57017        -4.70986
   C        4.10431       -19.31653        -4.43172
   C        4.39698       -18.17370        -5.18200
   N        4.65084       -17.24849        -5.81498
   C        4.27603       -22.87847        -3.65708
   S        3.55041       -23.84656        -2.38406
   C        4.28773       -25.26995        -3.01766
   C        4.29714       -26.62153        -2.66080
   C        5.06552       -27.36867        -3.51887
   C        5.27233       -28.82153        -3.40516
   O        4.76238       -29.46682        -2.52996
   O        6.05881       -29.39640        -4.32959
   S        5.79228       -26.40181        -4.79074
   C        5.05181       -24.97903        -4.15629
   C        5.04735       -23.63330        -4.52044
   H       -1.97519        -1.38444        -2.33655
   H        1.14413         2.87382        -3.94333
   H        4.79862         0.46836        -4.79792
   H       -1.47259        -3.68293        -2.06770
   H        2.49302        -3.00728        -3.66092
   H        1.20076        -7.78149        -2.73940
   H       -2.53951        -8.33525        -0.62086
   H       -1.49109        -9.69016         0.76324
   H       -1.27414       -11.41112         1.14856
   H       -3.34766       -10.41819        -0.87229
   H       -3.69521       -10.83933         0.81161
   H       -3.10536       -12.07076        -0.30776
   H        2.83241       -11.01368        -5.68114
   H        2.71067       -12.78275        -5.53926
   H        4.65933       -10.95984        -4.02741
   H        5.07915       -12.05119        -5.35044
   H        4.55563       -12.70929        -3.79662
   H        2.61819       -14.28915        -3.85672
   H        0.87659       -14.51606        -1.33644
   H        3.12714       -16.59351        -3.87424
   H        0.71209       -16.86232        -0.29284
   H        2.75429       -21.14170        -1.96457
   H        5.18091       -20.84898        -5.53373
   H        3.77874       -27.05306        -1.82493
   H        6.40923       -28.77197        -4.97919
   H        5.57667       -23.23084        -5.36361
*
