# ORCA input file
# SCF done       -181.997937022977          0.000773919611
! CAM-B3LYP def2-SVP def2/J RIJCOSX Grid4 TightSCF
%maxcore 5000
%tddft
    Mode sTDDFT
    Ethresh 5.0
    maxcore 5000
end

%pal
  nprocs 6
  end
* xyz 0 1
   C        0.75366         0.42925         2.30246
   S        0.34279         1.92316         3.05440
   C       -0.56536         1.08214         4.26267
   C       -1.31205         1.45821         5.38638
   C       -1.86221         0.37030         6.01299
   C       -2.69504         0.43232         7.22466
   O       -2.85934         1.45634         7.83001
   O       -3.26250        -0.71652         7.62774
   S       -1.45551        -1.13861         5.21817
   C       -0.54032        -0.29058         4.03833
   C        0.22839        -0.67857         2.91364
   C        0.36149        -2.04298         2.42975
   C       -0.67853        -2.81545         1.95486
   N       -2.02235        -2.42981         1.80302
   O       -2.79273        -3.25631         1.34697
   O       -2.34479        -1.30066         2.13704
   C       -0.17733        -4.10449         1.53895
   C        1.14095        -4.14910         1.82470
   C        1.54068        -2.89504         2.43481
   C        2.78070        -2.60664         2.97494
   C        3.35016        -1.31792         3.18550
   C        4.69682        -1.45118         3.37158
   C        5.03667        -2.83522         3.37071
   N        6.34049        -3.29376         3.59884
   O        7.20957        -2.45254         3.75797
   O        6.54981        -4.49996         3.61645
   C        3.86357        -3.59176         3.22088
   C        3.75432        -4.96710         3.42781
   C        2.61377        -5.64825         3.79792
   C        2.56565        -7.03207         3.93767
   S        3.91411        -8.08500         3.54681
   C        3.04082        -9.55458         3.91438
   C        1.73564        -9.23483         4.34402
   C        1.49205        -7.83632         4.34629
   N        0.22276        -7.61892         4.75938
   C       -0.35646        -8.83967         5.02999
   C       -1.67672        -8.94899         5.49194
   N       -2.75401        -9.04382         5.87295
   C        0.54715        -9.85597         4.78518
   C        3.68688       -10.77735         3.71782
   C        3.12133       -12.01313         3.90126
   C        3.76885       -13.23309         3.64184
   C        3.19078       -14.49171         3.76524
   C        4.12113       -15.47880         3.36724
   C        5.35097       -14.75329         2.99775
   C        5.13022       -13.42336         3.16541
   C        6.55418       -15.31321         2.55249
   N        7.55526       -15.73838         2.18295
   C        3.92917       -16.84672         3.29612
   C        4.83386       -17.82834         2.82867
   C        4.23184       -19.07339         2.87894
   C        2.88936       -18.89244         3.41705
   C        2.69664       -17.57262         3.66938
   C        1.52662       -17.01839         4.19935
   N        0.55335       -16.59088         4.63532
   C        4.82302       -20.28672         2.45710
   C        4.20565       -21.49866         2.47338
   C        4.78661       -22.71073         2.02550
   S        3.82204       -24.17937         2.10101
   C        5.11324       -25.09717         1.42599
   C        5.30234       -26.43821         1.08147
   C        6.55351       -26.65575         0.55923
   C        7.04760       -27.96579         0.10019
   O        6.36500       -28.95200         0.15798
   O        8.29839       -28.00730        -0.38309
   S        7.52173       -25.19482         0.48825
   C        6.22510       -24.28176         1.16724
   C        6.04724       -22.94167         1.50195
   H        1.33280         0.44351         1.39888
   H       -1.45883         2.46350         5.73452
   H       -3.09303        -1.45627         7.02910
   H       -0.78444        -4.84950         1.06267
   H        1.82165        -4.93784         1.57237
   H        2.81949        -0.39079         3.11533
   H        5.41516        -0.66391         3.50404
   H        4.68126        -5.52813         3.38518
   H        1.70806        -5.10068         4.02354
   H       -0.24048        -6.73007         4.85551
   H        0.34673       -10.89913         4.91979
   H        4.70952       -10.71386         3.37235
   H        2.09998       -12.08002         4.24575
   H        2.18859       -14.68518         4.09409
   H        5.84365       -12.64291         2.97923
   H        5.82708       -17.63153         2.47590
   H        2.17351       -19.67419         3.58791
   H        5.83664       -20.20948         2.08838
   H        3.19217       -21.57741         2.84115
   H        4.57985       -27.22462         1.19628
   H        8.74485       -27.14974        -0.37752
   H        6.79355       -22.18129         1.37017
*
