# ORCA input file
# SCF done       -223.300261136085          0.000671604003
! CAM-B3LYP def2-SVP def2/J RIJCOSX Grid4 TightSCF
%maxcore 5000
%tddft
    Mode sTDDFT
    Ethresh 5.0
    maxcore 5000
end

%pal
  nprocs 6
  end
* xyz 0 1
   C        3.44261         1.33289         6.83762
   C        2.09330         1.30169         7.01802
   S        1.49475        -0.30906         6.88820
   C        3.06307        -0.95284         6.58976
   C        3.99814         0.03381         6.59084
   C        5.44940         0.13772         6.42493
   O        6.25456        -0.74927         6.25391
   C        5.74507         1.59673         6.59298
   C        4.49987         2.31997         6.80295
   C        4.33033         3.67495         6.87114
   C        3.05576         4.24613         7.07342
   N        2.02168         4.71339         7.23812
   C        5.36500         4.61616         6.69518
   N        6.16939         5.41236         6.50601
   C        7.00479         2.08676         6.69842
   C        8.18741         1.34903         6.39605
   C        9.28553         1.19179         7.21568
   N        9.41777         1.73243         8.51015
   O       10.47955         1.57990         9.08035
   O        8.45756         2.32820         8.97223
   C       10.24135         0.31833         6.58561
   C        9.72060        -0.10015         5.40351
   C        8.43934         0.51793         5.20799
   C        7.64105         0.49236         4.08138
   C        6.78253         1.54298         3.64499
   C        6.26817         1.20592         2.42720
   C        6.72941        -0.09515         2.06109
   N        6.30523        -0.65702         0.84185
   O        6.91499        -1.60452         0.36773
   O        5.34376        -0.14041         0.30205
   C        7.56560        -0.59144         3.08016
   C        8.06618        -1.86692         3.38368
   C        8.03955        -2.98800         2.58542
   C        8.56825        -4.21919         2.98982
   N        8.54497        -5.34285         2.20544
   C        7.98918        -5.45740         0.87479
   C        8.91426        -4.87041        -0.18703
   C        9.18493        -6.43348         2.81596
   O        9.32629        -7.51682         2.29864
   C        9.60592        -5.91772         4.11188
   C        9.22997        -4.57546         4.19162
   C        9.70775        -4.05190         5.46298
   O        9.63394        -2.95289         5.96640
   N       10.34798        -5.14446         6.07018
   C       10.98804        -5.01105         7.35877
   C       12.49128        -4.78344         7.22306
   C       10.30035        -6.27143         5.28973
   C       10.87907        -7.49998         5.63042
   C       10.67315        -8.64866         4.90374
   C       11.30350        -9.87437         5.16115
   C       10.77760       -11.14724         4.92370
   N        9.52191       -11.45930         4.36070
   O        8.71516       -10.55865         4.21096
   O        9.32214       -12.62319         4.06825
   C       11.66472       -12.13281         5.44543
   C       12.73009       -11.50450         6.02816
   C       12.60100       -10.09627         5.83575
   C       13.57996        -9.14464         6.04606
   C       13.76882        -7.93239         5.29672
   C       14.93020        -7.35336         5.69174
   C       15.51201        -8.14580         6.74516
   N       16.61790        -7.66382         7.48245
   O       17.18242        -6.68073         7.03829
   O       16.91679        -8.21271         8.52663
   C       14.72402        -9.26646         6.96629
   C       14.86244       -10.31349         7.91861
   C       16.04498       -10.84382         8.32908
   C       16.09995       -11.87203         9.29884
   C       17.24258       -12.51729         9.67243
   C       18.59572       -12.26769         9.07760
   O       18.85643       -11.61165         8.09632
   C       19.52045       -13.03313         9.92222
   C       20.86047       -13.23389        10.00336
   S       21.23815       -14.32074        11.28682
   C       19.58088       -14.51349        11.71615
   C       18.77971       -13.76762        10.90502
   C       17.36666       -13.49872        10.73900
   C       16.36614       -14.09875        11.45864
   C       16.65653       -15.03884        12.47011
   N       16.87845       -15.80310        13.29627
   C       14.98505       -13.89253        11.27596
   N       13.84845       -13.77290        11.16382
   H        1.41449         2.10555         7.22217
   H        3.19467        -2.00460         6.43197
   H        7.15788         3.08082         7.10575
   H       11.18977         0.06348         7.01775
   H       10.22473        -0.69967         4.67233
   H        6.66550         2.48722         4.14106
   H        5.62510         1.79948         1.80438
   H        8.48633        -1.96785         4.37530
   H        7.62172        -2.92859         1.59241
   H        7.01305        -4.96835         0.84568
   H        7.85708        -6.52796         0.69649
   H        9.03341        -3.79814        -0.05606
   H        8.48978        -5.04961        -1.17020
   H        9.89117        -5.34551        -0.13888
   H       10.77797        -5.89855         7.96062
   H       10.52887        -4.14266         7.83879
   H       12.97245        -5.61510         6.71253
   H       12.93477        -4.67505         8.20849
   H       12.68017        -3.87395         6.65848
   H       11.48035        -7.54514         6.52753
   H        9.92342        -8.64698         4.11886
   H       11.48770       -13.18990         5.37949
   H       13.59271       -11.98944         6.44156
   H       13.14150        -7.61489         4.48725
   H       15.38128        -6.45453         5.31597
   H       13.94030       -10.74063         8.29616
   H       16.97829       -10.50509         7.90663
   H       15.17016       -12.12644         9.79330
   H       21.64215       -12.81578         9.40135
   H       19.31787       -15.15638        12.53223
*
