# ORCA input file
# SCF done       -262.115340246828          0.000358515485
! CAM-B3LYP def2-SVP def2/J RIJCOSX Grid4 TightSCF
%maxcore 5000
%tddft
    Mode sTDDFT
    Ethresh 5.0
    maxcore 5000
end

%pal
  nprocs 6
  end
* xyz 0 1
   C        1.68231        -0.95003         2.87742
   C        2.99638        -1.32553         2.89981
   F        3.95343        -0.41336         3.10701
   C        3.36102        -2.67350         2.70567
   F        4.65587        -3.01255         2.73287
   C        2.40585        -3.62724         2.49086
   C        1.04328        -3.27160         2.46156
   C        0.67308        -1.90927         2.65995
   C       -0.68873        -1.52953         2.64166
   C       -1.64900        -2.48230         2.42753
   C       -1.26935        -3.83892         2.21663
   C        0.03703        -4.23662         2.23616
   C       -2.47587        -4.65049         1.98767
   O       -2.52125        -5.85730         1.82857
   C       -3.60260        -3.70411         1.97417
   C       -3.10512        -2.39846         2.37712
   C       -3.86348        -1.32204         2.74554
   C       -3.31869        -0.07625         3.12425
   N       -2.92175         0.95625         3.42921
   C       -5.27048        -1.33673         2.88421
   N       -6.39839        -1.28988         3.08757
   C       -4.85894        -3.94735         1.49530
   C       -5.43366        -5.15656         1.05751
   S       -4.72541        -6.73712         1.25077
   C       -6.11825        -7.49840         0.55992
   C       -7.09359        -6.56826         0.20455
   C       -6.69905        -5.24682         0.45372
   C       -7.51456        -4.10192        -0.00095
   O       -7.16192        -2.94261         0.12068
   C       -8.76055        -4.46963        -0.69948
   C       -9.52114        -3.45322        -1.27434
   C      -10.68179        -3.74298        -1.96477
   C      -11.12907        -5.05533        -2.08685
   C      -12.35003        -5.38808        -2.88903
   C      -11.94293        -5.78229        -4.31156
   C      -10.38704        -6.06754        -1.49110
   C       -9.21025        -5.79331        -0.80924
   C       -8.47239        -6.91203        -0.19679
   O       -8.97782        -7.98801         0.05117
   C       -6.16449        -8.87314         0.19819
   N       -5.59827        -9.92443         0.85911
   C       -4.89097        -9.89669         2.11751
   C       -3.38035        -9.81999         1.91477
   C       -5.81992       -11.14157         0.17779
   O       -5.44650       -12.21704         0.60121
   C       -6.54421       -10.76309        -1.01672
   C       -6.74980        -9.37162        -0.96529
   C       -7.42486        -8.95917        -2.18069
   O       -7.77007        -7.86712        -2.58193
   N       -7.59814       -10.15312        -2.89296
   C       -8.32952       -10.17979        -4.13898
   C       -9.76777       -10.64565        -3.93264
   C       -7.08551       -11.24038        -2.22434
   C       -7.10475       -12.54347        -2.74912
   C       -6.57862       -13.61253        -2.07131
   C       -6.54403       -14.96023        -2.47764
   C       -7.18664       -15.68295        -3.50100
   N       -7.92297       -15.27164        -4.62373
   O       -7.86261       -14.11051        -5.00389
   O       -8.58402       -16.12523        -5.19139
   C       -7.00830       -17.08188        -3.26490
   C       -6.29840       -17.25993        -2.11750
   C       -5.94393       -15.97545        -1.59717
   C       -5.07663       -15.75186        -0.53755
   C       -4.10225       -14.72230        -0.42853
   C       -3.24652       -15.03147         0.59103
   C       -3.68946       -16.23366         1.22615
   N       -3.06438       -16.77917         2.35590
   O       -3.52631       -17.79978         2.84693
   O       -2.07712       -16.20545         2.78491
   C       -4.83844       -16.69087         0.58178
   C       -5.70632       -17.71891         0.99137
   C       -7.02417       -17.78355         0.63507
   C       -7.89529       -18.85006         0.92593
   S       -7.40261       -20.26867         1.80290
   C       -8.96807       -20.99264         1.62680
   C       -9.82998       -20.15716         0.92659
   C       -9.22696       -18.96045         0.52890
   C       -9.94240       -17.90268        -0.24804
   C      -11.26674       -18.41367        -0.83157
   C      -12.02066       -17.20164        -1.38353
   F      -11.19913       -16.40360        -2.08579
   F      -13.01737       -17.52465        -2.20600
   F      -12.53057       -16.43942        -0.40455
   C      -12.03900       -19.17301         0.25840
   C      -13.44324       -19.59512        -0.17698
   F      -13.43928       -20.20198        -1.37145
   F      -13.97050       -20.47712         0.69017
   F      -14.30873       -18.58314        -0.23881
   C      -11.26675       -20.44792         0.63244
   C       -9.16006       -22.29252         2.20861
   C      -10.13950       -23.16092         1.95608
   H        1.42067         0.08546         3.02960
   H        2.70135        -4.65426         2.34374
   H       -0.93784        -0.49141         2.79158
   H        0.29884        -5.27208         2.07989
   H       -5.52356        -3.09730         1.37915
   H       -9.17536        -2.43545        -1.16981
   H      -11.25089        -2.94216        -2.41428
   H      -13.02016        -4.52761        -2.92794
   H      -12.88182        -6.22021        -2.42433
   H      -11.43425        -4.95577        -4.80240
   H      -12.82017        -6.04774        -4.89617
   H      -11.26672        -6.63354        -4.28816
   H      -10.70771        -7.09666        -1.55643
   H       -5.13776       -10.82806         2.63571
   H       -5.24713        -9.04986         2.70757
   H       -3.04446       -10.66940         1.32520
   H       -2.88422        -9.84940         2.88023
   H       -3.09818        -8.89957         1.40952
   H       -7.81562       -10.82513        -4.85511
   H       -8.32126        -9.15264        -4.51396
   H       -9.79505       -11.67314        -3.57893
   H      -10.30878       -10.58946        -4.87266
   H      -10.26442       -10.01175        -3.20167
   H       -7.53006       -12.68545        -3.72993
   H       -6.15082       -13.42105        -1.09590
   H       -7.37969       -17.84119        -3.92685
   H       -5.95148       -18.19488        -1.72291
   H       -3.98376       -13.91254        -1.12071
   H       -2.37224       -14.48740         0.89460
   H       -5.30392       -18.45532         1.67657
   H       -7.46053       -16.95497         0.09554
   H       -9.30748       -17.54599        -1.06205
   H      -10.14800       -17.04941         0.40843
   H      -11.07800       -19.08186        -1.67900
   H      -12.15942       -18.52897         1.13655
   H      -11.33538       -21.15577        -0.20072
   H      -11.73121       -20.91020         1.50600
   H       -8.38162       -22.57421         2.90680
   H      -10.92090       -22.98546         1.24063
   H      -10.16456       -24.11071         2.46082
*
