# ORCA input file
# SCF done       -270.861313012852          0.000556141168
! CAM-B3LYP def2-SVP def2/J RIJCOSX Grid4 TightSCF
%maxcore 5000
%tddft
    Mode sTDDFT
    Ethresh 5.0
    maxcore 5000
end

%pal
  nprocs 6
  end
* xyz 0 1
   C       -0.95337       -19.92110        -2.60463
   C       -1.77524       -21.00921        -2.51036
   F       -1.25787       -22.23160        -2.34932
   C       -3.17569       -20.85906        -2.58218
   F       -3.95667       -21.94181        -2.48908
   C       -3.73434       -19.62274        -2.74742
   C       -2.91387       -18.48229        -2.84925
   C       -1.49796       -18.63242        -2.77554
   C       -0.65547       -17.50195        -2.87146
   C       -1.21119       -16.26023        -3.03610
   C       -2.62681       -16.11931        -3.11784
   C       -3.46511       -17.19472        -3.02691
   C       -2.96802       -14.70377        -3.32145
   O       -4.07711       -14.23373        -3.48812
   C       -1.67285       -13.98464        -3.37896
   C       -0.60243       -14.94047        -3.14385
   C        0.71758       -14.63697        -2.96618
   C        1.22316       -13.31826        -2.93925
   N        1.67167       -12.26531        -2.85949
   C        1.72555       -15.59775        -2.73391
   N        2.57918       -16.34131        -2.54889
   C       -1.56551       -12.69701        -3.78569
   C       -2.69092       -11.81918        -3.92275
   C       -3.11022       -11.21133        -5.08968
   N       -2.48694       -11.39145        -6.33689
   O       -2.90590       -10.75504        -7.28362
   O       -1.55947       -12.18664        -6.38713
   C       -4.31171       -10.45939        -4.84727
   C       -4.66090       -10.63938        -3.55060
   C       -3.68040       -11.49343        -2.90919
   C       -3.60496       -11.83204        -1.57426
   C       -2.43828       -12.05711        -0.79830
   C       -2.78898       -12.04301         0.52429
   C       -4.20936       -11.90261         0.63858
   N       -4.89642       -11.94041         1.86249
   O       -4.22921       -12.05276         2.87646
   O       -6.11362       -11.85965         1.84456
   C       -4.75882       -11.82923        -0.63580
   C       -6.10181       -11.88252        -1.04085
   C       -6.44789       -12.37906        -2.26701
   N       -7.68196       -12.33753        -2.82219
   C       -8.74681       -11.54457        -2.37944
   O       -8.71239       -10.80478        -1.43592
   C       -9.91854       -11.76549        -3.32546
   C       -9.35660       -12.71272        -4.33827
   C       -8.04521       -13.03357        -3.98291
   C       -7.28995       -13.92441        -4.72298
   C       -7.87030       -14.50994        -5.84335
   C       -9.18155       -14.19135        -6.19081
   C       -9.93380       -13.29432        -5.44768
   C       -7.09084       -15.47545        -6.68010
   C      -11.10848       -12.36187        -2.54347
   C      -10.82550       -13.83216        -2.26477
   O       -9.87782       -14.29729        -1.68356
   N      -11.82158       -14.58274        -2.87233
   C      -12.77435       -13.74783        -3.47344
   C      -12.38536       -12.41311        -3.31612
   C      -13.16858       -11.39523        -3.81156
   C      -14.35448       -11.71958        -4.45606
   C      -14.77279       -13.03887        -4.57540
   C      -16.07789       -13.37805        -5.22524
   C      -13.97754       -14.06784        -4.07146
   C      -11.77005       -15.95880        -2.86889
   C      -12.28290       -16.75484        -3.82673
   C      -12.29284       -18.17726        -3.78359
   C      -12.74810       -18.99941        -4.78696
   C      -12.67236       -20.35504        -4.36085
   C      -12.11507       -20.31881        -2.98948
   C      -11.88784       -19.02067        -2.66451
   C      -11.85368       -21.41085        -2.15474
   N      -11.61952       -22.28432        -1.44492
   C      -13.07005       -21.47838        -5.04184
   C      -13.07263       -22.81785        -4.54912
   C      -13.63676       -23.65043        -5.48824
   C      -13.95540       -22.84607        -6.65788
   C      -13.64385       -21.54758        -6.39739
   C      -13.83454       -20.47341        -7.27239
   N      -13.99590       -19.60282        -8.00485
   C      -13.89714       -25.04577        -5.34666
   C      -14.08570       -25.64852        -4.14396
   C      -14.28213       -24.88711        -2.95588
   C      -13.96795       -25.08327        -1.64915
   C      -14.10462       -23.88344        -0.76357
   O      -14.73240       -22.88148        -1.01959
   C      -13.27795       -24.16765         0.41780
   C      -12.96500       -23.34507         1.46109
   C      -12.09902       -23.81800         2.47079
   C      -11.56581       -25.13604         2.37216
   C      -10.69830       -25.60165         3.38101
   C      -10.37749       -24.79794         4.43859
   C      -10.90461       -23.49415         4.53456
   C      -11.74707       -23.01324         3.57205
   F      -10.57173       -22.72763         5.58221
   F       -9.55610       -25.24333         5.39845
   C      -11.90645       -25.96326         1.27806
   C      -12.75901       -25.48914         0.31623
   C      -13.29322       -26.11882        -0.89147
   C      -13.27485       -27.46604        -1.13512
   C      -13.97136       -28.10374        -2.17846
   N      -14.54630       -28.67428        -2.99243
   C      -12.62807       -28.41163        -0.30971
   N      -12.11941       -29.23167         0.31132
   H        0.11567       -20.05329        -2.54598
   H       -4.80747       -19.52551        -2.79902
   H        0.41157       -17.64605        -2.81736
   H       -4.53545       -17.06578        -3.08619
   H       -0.60343       -12.29617        -4.08223
   H       -4.80840        -9.87217        -5.59501
   H       -5.45487       -10.14187        -3.02865
   H       -1.43842       -12.08925        -1.18747
   H       -2.13276       -12.12169         1.37129
   H       -6.85935       -11.58431        -0.32702
   H       -5.71220       -12.90836        -2.85754
   H      -10.22968       -10.80794        -3.75355
   H       -6.27648       -14.17193        -4.44927
   H       -9.61945       -14.65594        -7.06137
   H      -10.94747       -13.05579        -5.73242
   H       -7.62381       -16.42066        -6.76863
   H       -6.11129       -15.66191        -6.24876
   H       -6.95597       -15.07686        -7.68460
   H      -11.21278       -11.80571        -1.60564
   H      -12.87358       -10.36400        -3.69238
   H      -14.97390       -10.93004        -4.85297
   H      -16.55238       -12.49134        -5.63545
   H      -16.75322       -13.82683        -4.49788
   H      -15.93003       -14.09902        -6.02743
   H      -14.33116       -15.08399        -4.13186
   H      -11.20430       -16.35274        -2.03462
   H      -12.72292       -16.31722        -4.71114
   H      -13.12000       -18.68212        -5.74144
   H      -11.48720       -18.66549        -1.73366
   H      -12.63830       -23.11542        -3.61642
   H      -14.39717       -23.22790        -7.56000
   H      -13.92166       -25.63933        -6.25061
   H      -14.14702       -26.72531        -4.10648
   H      -14.72142       -23.90394        -3.12590
   H      -13.36882       -22.34571         1.51017
   H      -10.28742       -26.59761         3.32438
   H      -12.14159       -22.01307         3.65967
   H      -11.47275       -26.94883         1.22404
*
