# ORCA input file
# SCF done       -237.182595220080          0.000721697453
! CAM-B3LYP def2-SVP def2/J RIJCOSX Grid4 TightSCF
%maxcore 5000
%tddft
    Mode sTDDFT
    Ethresh 5.0
    maxcore 5000
end

%pal
  nprocs 6
  end
* xyz 0 1
   C       -8.69906       -23.09663         5.60465
   C       -9.47220       -24.17608         5.28276
   F       -9.37041       -25.31138         5.98579
   C      -10.38435       -24.11092         4.20949
   F      -11.12827       -25.18563         3.91672
   C      -10.50984       -22.96676         3.47285
   C       -9.72678       -21.83641         3.77892
   C       -8.80423       -21.90114         4.86437
   C       -8.01058       -20.77981         5.19161
   C       -8.13728       -19.62952         4.45633
   C       -9.06261       -19.57220         3.37444
   C       -9.83927       -20.64178         3.03401
   C       -9.01425       -18.23359         2.75938
   O       -9.48859       -17.87541         1.70876
   C       -8.15630       -17.42316         3.68225
   C       -7.47256       -18.33975         4.58200
   C       -6.38905       -18.04925         5.36197
   C       -5.74173       -16.79545         5.34509
   N       -5.18078       -15.79418         5.33647
   C       -5.75830       -18.97562         6.21969
   N       -5.20974       -19.69065         6.92940
   C       -8.19558       -16.07854         3.73370
   C       -9.10070       -15.27023         2.95357
   C      -10.47791       -15.38480         2.89684
   N      -11.31310       -16.29910         3.55979
   O      -12.51472       -16.13295         3.45619
   O      -10.81179       -17.20685         4.21295
   C      -11.01513       -14.31075         2.09491
   C       -9.98369       -13.58841         1.60604
   C       -8.74121       -14.14826         2.09065
   C       -7.46599       -13.73954         1.75664
   C       -6.25250       -13.97736         2.46429
   C       -5.30559       -13.12358         1.99145
   C       -5.84038       -12.34888         0.90402
   N       -5.00945       -11.43989         0.24352
   O       -5.49191       -10.58079        -0.49099
   O       -3.80910       -11.52754         0.45050
   C       -7.15501       -12.76806         0.66669
   C       -8.01260       -12.64657        -0.44449
   C       -7.94207       -11.69718        -1.42581
   C       -8.81237       -11.57071        -2.54761
   C       -8.48694       -10.70557        -3.61846
   N       -7.28866       -10.13323        -3.93514
   C       -5.99656       -10.70727        -3.63243
   C       -5.32218       -11.27462        -4.88719
   C       -3.88165       -11.66731        -4.59217
   C       -7.50351        -9.21957        -4.95759
   C       -8.85345        -9.29120        -5.37411
   C       -9.48533       -10.26657        -4.52641
   C      -10.75946       -10.79723        -4.47936
   C      -11.04623       -11.75748        -3.51147
   C      -10.10781       -12.12610        -2.57142
   C       -9.32470        -8.49736        -6.40727
   C       -8.44571        -7.61508        -7.00736
   C       -7.13520        -7.50365        -6.56384
   C       -6.63467        -8.28789        -5.52988
   C       -5.27636        -8.03209        -5.02902
   C       -5.02167        -7.60233        -3.76250
   S       -3.34962        -7.31929        -3.47602
   C       -2.96408        -7.78012        -5.06842
   C       -4.07133        -8.13427        -5.79822
   C       -4.02453        -8.65171        -7.16532
   O       -4.96148        -9.08278        -7.78485
   O       -2.74541        -8.59308        -7.64631
   C       -2.36394        -9.12502        -8.82738
   C       -3.11841        -9.63750        -9.81160
   C       -2.57565       -10.16001       -11.02539
   C       -1.38630       -10.76329       -11.27271
   C       -0.94448       -10.89631       -12.69388
   O       -1.62049       -10.70713       -13.67681
   C        0.48618       -11.24895       -12.62921
   C        1.38450       -11.37622       -13.64960
   C        2.72517       -11.70217       -13.34752
   C        3.11137       -11.87747       -11.98669
   C        4.45220       -12.19573       -11.69003
   C        5.36490       -12.33819       -12.69693
   C        4.98129       -12.16663       -14.04284
   C        3.68972       -11.85483       -14.36273
   F        5.89752       -12.31145       -15.00827
   F        6.63716       -12.64277       -12.41413
   C        2.15839       -11.74145       -10.95219
   C        0.85916       -11.44333       -11.26908
   C       -0.32755       -11.28852       -10.42915
   C       -0.44272       -11.78201        -9.15765
   C       -1.63416       -11.83115        -8.40697
   N       -2.56041       -11.93761        -7.73759
   C        0.62281       -12.37879        -8.44893
   N        1.45369       -12.85949        -7.82034
   H       -8.00597       -23.16334         6.42871
   H      -11.21342       -22.93270         2.65589
   H       -7.32865       -20.85207         6.02405
   H      -10.53739       -20.57410         2.21386
   H       -7.58720       -15.54327         4.45149
   H      -12.06648       -14.15059         1.95380
   H      -10.06140       -12.69062         1.02510
   H       -6.11496       -14.64531         3.28912
   H       -4.30022       -13.00954         2.35171
   H       -8.75648       -13.42694        -0.52729
   H       -7.21275       -10.90977        -1.30667
   H       -6.14065       -11.52610        -2.92912
   H       -5.35544        -9.96539        -3.15007
   H       -5.34469       -10.54940        -5.69839
   H       -5.88274       -12.15028        -5.22257
   H       -3.31439       -10.80609        -4.24504
   H       -3.40823       -12.04941        -5.49179
   H       -3.83950       -12.43404        -3.82217
   H      -11.51610       -10.47805        -5.17892
   H      -12.03333       -12.19186        -3.47129
   H      -10.39565       -12.81016        -1.78868
   H      -10.35342        -8.56255        -6.72555
   H       -8.78358        -6.98495        -7.81554
   H       -6.48213        -6.77511        -7.01987
   H       -5.73100        -7.42402        -2.97840
   H       -1.94417        -7.78594        -5.39686
   H       -1.28655        -9.04089        -8.92455
   H       -4.19517        -9.61107        -9.73730
   H       -3.19609       -10.02399       -11.90700
   H        1.07529       -11.23135       -14.67341
   H        4.76127       -12.33507       -10.66594
   H        3.41227       -11.72704       -15.39724
   H        2.48313       -11.86993        -9.93227
*
