# ORCA input file
# SCF done       -219.121909881845          0.000608143504
! CAM-B3LYP def2-SVP def2/J RIJCOSX Grid4 TightSCF
%maxcore 5000
%tddft
    Mode sTDDFT
    Ethresh 5.0
    maxcore 5000
end

%pal
  nprocs 6
  end
* xyz 0 1
   C       -7.98620         0.00873        -9.28570
   C       -9.24874        -0.21999        -8.79609
   C      -10.40176        -0.32107        -9.60037
   N      -11.37603        -0.41779       -10.20094
   C       -9.58447        -0.37466        -7.43557
   N       -9.94851        -0.49533        -6.35265
   C       -7.66057         0.23711       -10.69172
   C       -6.27153         0.48331       -10.79755
   C       -5.65403         0.74388       -11.99533
   C       -6.44756         0.77238       -13.14743
   C       -7.83412         0.52085       -13.03305
   C       -8.45769         0.25025       -11.82069
   S       -8.62687         0.59460       -14.57892
   C       -7.10490         0.96193       -15.34489
   C       -6.05604         1.02491       -14.49095
  Br       -7.04051         1.23131       -17.20118
   C       -5.65151         0.38266        -9.45711
   O       -4.45651         0.38843        -9.23336
   C       -6.76586         0.13946        -8.52234
   C       -6.63906        -0.06931        -7.16806
   C       -5.54572         0.30278        -6.38108
   S       -5.27786        -0.44600        -4.82070
   C       -3.85787         0.45289        -4.52926
   C       -3.58507         1.32944        -5.55399
   C       -4.57382         1.28949        -6.58992
   N       -4.59182         2.23284        -7.53726
   C       -3.57784         3.06460        -7.60566
   C       -2.39333         2.83222        -6.78189
   N       -1.18030         3.41753        -7.02512
   C       -0.60729         3.50728        -8.35399
   N       -2.46576         2.07190        -5.72107
   N       -3.72144         4.14411        -8.43471
   C       -4.80207         4.13593        -9.39818
   C       -2.97543         5.29341        -8.29160
   C       -2.96644         6.32128        -9.15167
   C       -2.21032         7.53821        -8.89302
   C       -2.21771         8.12365        -7.66408
   S       -1.42646         9.65037        -7.59189
   C       -1.05864         9.53343        -9.28318
   C       -1.49529         8.33316        -9.86400
   C       -1.21660         8.06866       -11.22922
   C       -1.39026         6.64827       -11.71042
   C       -0.13000         6.08276       -12.36822
   C       -0.69497         9.07924       -12.03141
   C       -0.70838         9.04259       -13.54284
   C       -1.96546         8.45088       -14.18336
   C       -0.19433        10.25878       -11.42155
   C        0.52900        11.36960       -12.00023
   C        0.78289        12.34810       -11.07835
   S        0.24792        11.99003        -9.49271
   C       -0.38457        10.46934       -10.04846
   C        1.06328        11.46195       -13.33659
   C        1.19864        12.61784       -14.01844
   C        1.74835        12.70424       -15.32618
   S        2.29954        11.32578       -16.22421
   C        2.71145        12.29678       -17.61238
   C        2.43708        13.63917       -17.36846
   C        1.89226        13.86488       -16.07847
   C        1.52264        15.13254       -15.59634
   N        1.21014        16.15577       -15.18450
   C        2.64319        14.69915       -18.26778
   N        2.77986        15.58988       -18.97796
   C        3.25007        11.66189       -18.75915
   C        3.62040        12.30289       -19.89560
   C        4.17021        11.64418       -21.02087
   C        4.75216        12.26171       -22.08434
   C        5.14696        13.64402       -22.27086
   C        5.59235        14.49979       -21.29827
   C        6.04854        15.80907       -21.56209
   N        6.43431        16.87457       -21.73986
   C        5.77313        14.13148       -19.94777
   N        5.99152        13.85575       -18.85519
   C        5.21733        13.87643       -23.70927
   C        5.11709        12.62857       -24.37779
   C        4.91252        11.55525       -23.38466
   O        4.83391        10.36438       -23.57759
   C        5.18399        12.51965       -25.74594
   C        5.34381        13.69476       -26.48768
   C        5.42830        14.93589       -25.81071
   C        5.37087        15.04696       -24.42677
   S        5.60797        16.25871       -26.92119
   C        5.57093        15.14393       -28.26171
   C        5.43076        13.84672       -27.89856
  Br        5.71862        15.79755       -30.01269
   H       -4.59071         0.92004       -12.04381
   H       -9.51689         0.05829       -11.78852
   H       -5.04723         1.23654       -14.79530
   H       -7.44176        -0.57523        -6.64647
   H       -3.27158         0.27165        -3.65067
   H       -0.51069         3.15274        -6.31164
   H       -1.38232         3.41006        -9.10950
   H        0.12424         2.71144        -8.51594
   H       -0.10907         4.47090        -8.47605
   H       -5.44535         5.00448        -9.25314
   H       -5.37842         3.22616        -9.25417
   H       -4.39761         4.15136       -10.41245
   H       -2.35954         5.33174        -7.40658
   H       -3.56355         6.31515       -10.05007
   H       -2.70566         7.75546        -6.78289
   H       -2.24284         6.54821       -12.38254
   H       -1.58600         6.02820       -10.83639
   H        0.05407         6.50391       -13.35006
   H       -0.23361         5.00546       -12.48137
   H        0.73775         6.27867       -11.74225
   H        0.17720         8.53583       -13.93504
   H       -0.66057        10.08150       -13.87353
   H       -1.92839         7.36932       -14.25963
   H       -2.06557         8.84324       -15.19341
   H       -2.85050         8.73779       -13.62046
   H        1.33472        13.25283       -11.24462
   H        1.42205        10.54773       -13.79005
   H        0.84708        13.55108       -13.59888
   H        3.39832        10.59224       -18.68120
   H        3.47635        13.37006       -19.96713
   H        4.06181        10.56746       -21.08913
   H        5.11224        11.55839       -26.23013
   H        5.43098        16.01259       -23.95250
   H        5.38881        13.02970       -28.59544
*
