# ORCA input file
# SCF done       -201.636320626429          0.000695551136
! CAM-B3LYP def2-SVP def2/J RIJCOSX Grid4 TightSCF
%maxcore 5000
%tddft
    Mode sTDDFT
    Ethresh 5.0
    maxcore 5000
end

%pal
  nprocs 6
  end
* xyz 0 1
   C       -7.53515         1.02834         2.99566
   C       -7.46281        -0.17349         2.32220
   C       -8.39887        -1.21409         2.46595
   N       -9.13768        -2.09249         2.52534
   C       -6.48281        -0.52095         1.37646
   N       -5.72452        -0.87302         0.58543
   C       -8.60670         1.39686         3.92176
   C       -8.39820         2.73237         4.34067
   C       -9.28168         3.40213         5.14865
   C      -10.43521         2.72296         5.55827
   C      -10.61250         1.37598         5.17426
   C       -9.70865         0.69397         4.36563
   S      -12.09825         0.72173         5.79801
   C      -12.47092         2.25943         6.52650
   C      -11.52438         3.20775         6.33403
  Br      -14.08675         2.47355         7.45725
   C       -7.16213         3.23517         3.70999
   O       -6.65599         4.33450         3.89698
   C       -6.66760         2.16405         2.85641
   C       -5.53340         2.22381         2.05077
   C       -4.80544         3.32827         1.63999
   S       -5.39470         4.95437         1.84211
   C       -4.37704         5.56025         0.55780
   C       -3.34814         4.61508         0.25418
   C       -3.62466         3.33122         0.82356
   C       -2.74047         2.25644         0.61136
   C       -2.88669         0.90125         1.22887
   C       -1.62171         2.49750        -0.16749
   C       -1.30820         3.76354        -0.63716
   C       -2.12933         4.85125        -0.40395
   C       -1.61161         6.21386        -0.74993
   C       -4.84395         6.74225        -0.00421
   C       -4.54606         7.36579        -1.20852
   C       -5.22500         8.46779        -1.70919
   C       -6.47071         8.96434        -1.31243
   C       -7.01017        10.22411        -1.60800
   C       -8.26655        10.44579        -1.08383
   C       -8.78722         9.34507        -0.40574
   S       -7.64308         8.02514        -0.42296
   C       -9.95589         9.17104         0.35023
   C      -10.74216        10.09110         1.04851
   C      -11.57065         9.49910         1.97691
   C      -11.46797         8.09980         2.03249
   S      -10.41015         7.54221         0.76403
   C      -12.12626         7.24700         2.91702
   C      -11.97817         5.87623         3.05545
   S      -13.34011         4.99803         3.70520
   C      -12.78831         3.48280         3.04530
   C      -11.52691         3.64182         2.39760
   C      -10.99885         4.95801         2.56562
   C       -9.63170         5.20451         2.33216
   C       -8.87189         6.33065         2.95645
   C       -8.94828         4.25800         1.59502
   C       -9.54551         3.06517         1.20423
   C      -10.79737         2.69025         1.65318
   C      -11.30814         1.32827         1.30446
   C      -13.54635         2.33770         3.27113
   C      -14.70714         2.32493         4.01406
   C      -15.39564         1.15250         4.31909
   C      -16.54935         1.04484         5.06233
   C      -17.50221         2.03381         5.48507
   C      -17.80348         3.21742         4.85088
   C      -18.78370         4.12294         5.29959
   N      -19.55647         4.90881         5.62421
   C      -17.26101         3.62162         3.61509
   N      -16.89624         3.98615         2.58859
   C      -18.26384         1.45905         6.59246
   C      -17.92210         0.08907         6.71487
   C      -16.88025        -0.24001         5.71836
   O      -16.36936        -1.31905         5.51006
   C      -18.50104        -0.73513         7.64726
   C      -19.45849        -0.18009         8.50446
   C      -19.78321         1.19044         8.38144
   C      -19.20034         2.02472         7.43429
   S      -20.98468         1.66969         9.54206
   C      -21.03652         0.04217        10.16507
   C      -20.19703        -0.81637         9.54014
  Br      -22.19482        -0.36916        11.58253
   H       -9.10461         4.42287         5.44853
   H       -9.88707        -0.33609         4.10590
   H      -11.59286         4.20968         6.71705
   H       -5.22226         1.28629         1.62274
   H       -3.63643         0.30211         0.71008
   H       -3.16413         0.97576         2.27899
   H       -1.94222         0.36584         1.16165
   H       -0.93403         1.68672        -0.35752
   H       -0.37399         3.91506        -1.15785
   H       -0.55114         6.26080        -0.50610
   H       -2.12800         6.99096        -0.19471
   H       -1.70178         6.41209        -1.81800
   H       -5.62753         7.20112         0.58574
   H       -3.72508         7.00044        -1.80323
   H       -4.75308         9.01145        -2.51861
   H       -6.45585        10.95929        -2.16451
   H       -8.81512        11.36379        -1.19699
   H      -10.64227        11.15358         0.91758
   H      -12.20476        10.04750         2.65102
   H      -12.92547         7.69922         3.49307
   H       -9.51320         6.99443         3.52825
   H       -8.32183         6.90447         2.21379
   H       -8.12257         5.89808         3.62140
   H       -7.92152         4.45010         1.32620
   H       -8.98264         2.37846         0.58838
   H      -10.65517         0.86853         0.56580
   H      -12.31213         1.38039         0.88734
   H      -11.32052         0.67763         2.17909
   H      -13.20642         1.40098         2.86271
   H      -15.05860         3.25874         4.43075
   H      -14.93419         0.20847         4.04794
   H      -18.22732        -1.77640         7.71456
   H      -19.47583         3.06487         7.38213
   H      -20.10078        -1.85558         9.79644
*
