# ORCA input file
# SCF done       -204.011858897168          0.000804850592
! CAM-B3LYP def2-SVP def2/J RIJCOSX Grid4 TightSCF
%maxcore 5000
%tddft
    Mode sTDDFT
    Ethresh 5.0
    maxcore 5000
end

%pal
  nprocs 6
  end
* xyz 0 1
   C       -6.13136        -3.02465        -2.22120
   C       -7.23001        -3.40917        -2.94259
   C       -7.69555        -4.73905        -3.02852
   N       -8.11559        -5.80068        -3.14317
   C       -8.05786        -2.53588        -3.68062
   N       -8.78244        -1.88422        -4.28691
   C       -5.30728        -3.89183        -1.39115
   C       -4.33044        -3.10500        -0.73084
   C       -3.40719        -3.64137         0.13441
   C       -3.45295        -5.01954         0.36540
   C       -4.42993        -5.79969        -0.30171
   C       -5.35988        -5.25819        -1.17970
   S       -4.30489        -7.47887         0.12238
   C       -2.96211        -7.11797         1.17493
   C       -2.62376        -5.80651         1.20967
  Br       -2.13701        -8.50378         2.12900
   C       -4.47220        -1.69598        -1.13062
   O       -3.72379        -0.78731        -0.85772
   C       -5.63725        -1.66584        -2.07054
   C       -6.02343        -0.56880        -2.77104
   C       -5.66370         0.76016        -2.40934
   O       -5.60401         1.73048        -3.35630
   C       -5.43450         1.34257        -1.17680
   C       -5.42746         1.09914         0.27674
   O       -5.67306         0.11361         0.91655
   N       -5.11401         2.34687         0.80952
   C       -4.96689         3.37341        -0.11625
   O       -4.71185         4.51941         0.14670
   C       -5.20277         2.71463        -1.40783
   C       -5.30630         2.91731        -2.77650
   C       -5.15094         4.07918        -3.57885
   C       -4.84502         5.28495        -3.04257
   C       -4.67189         6.45201        -3.83213
   O       -4.36721         7.62822        -3.22082
   C       -4.73913         6.67384        -5.19935
   C       -4.99128         6.06387        -6.51318
   O       -5.27161         4.93371        -6.81360
   N       -4.82714         7.12006        -7.40822
   C       -4.48433         8.33853        -6.83302
   O       -4.24589         9.35892        -7.42795
   C       -4.45622         8.04153        -5.39877
   C       -4.23858         8.60165        -4.15316
   C       -3.96928         9.96506        -3.88895
   C       -3.75060        10.58353        -2.70559
   C       -3.56679        11.99681        -2.71116
   O       -3.60398        12.62662        -3.90990
   C       -3.39559        12.95787        -1.73195
   C       -3.26098        13.17938        -0.28520
   O       -3.24333        12.40801         0.63496
   N       -3.14511        14.56460        -0.17767
   C       -3.18810        15.26885        -1.37877
   O       -3.10426        16.46214        -1.48925
   C       -3.35133        14.21374        -2.38894
   C       -3.49295        13.96614        -3.74250
   C       -3.60867        14.79315        -4.89292
   C       -3.79181        14.23905        -6.11898
   C       -4.03481        14.98312        -7.29638
   C       -4.39546        14.50496        -8.51771
   C       -4.77111        13.19312        -9.02091
   C       -5.36942        12.15595        -8.35664
   C       -5.88316        11.00971        -9.00843
   N       -6.36563        10.08504        -9.48661
   C       -5.68810        12.09099        -6.98428
   N       -6.01391        11.95065        -5.89218
   C       -4.61328        13.23878       -10.47430
   C       -4.39204        14.57907       -10.87866
   C       -4.32375        15.43678        -9.68436
   O       -4.19381        16.63717        -9.63251
   C       -4.24106        14.94066       -12.19617
   C       -4.29717        13.92946       -13.16004
   C       -4.48965        12.58920       -12.74453
   C       -4.64788        12.22512       -11.41322
   S       -4.50488        11.49816       -14.09558
   C       -4.26102        12.83723       -15.18614
   C       -4.17068        14.04076       -14.57180
  Br       -4.15092        12.51945       -17.03053
   H       -2.67767        -3.01405         0.62163
   H       -6.08000        -5.89459        -1.66632
   H       -1.82264        -5.40932         1.80580
   H       -6.64190        -0.65833        -3.65446
   H       -5.02053         2.50010         1.80399
   H       -5.28457         3.95594        -4.64525
   H       -4.71600         5.40554        -1.97508
   H       -4.95756         7.01020        -8.40448
   H       -3.97915        10.56435        -4.78957
   H       -3.73235        10.06934        -1.75806
   H       -3.03895        15.02756         0.71417
   H       -3.60542        15.86102        -4.73458
   H       -3.76028        13.16301        -6.19922
   H       -3.88432        16.05718        -7.24944
   H       -4.08031        15.97061       -12.47325
   H       -4.77644        11.19015       -11.14440
   H       -4.02147        14.96981       -15.09093
*
