# ORCA input file
# SCF done       -155.095304146590          0.000493771216
! CAM-B3LYP def2-SVP def2/J RIJCOSX Grid4 TightSCF
%maxcore 5000
%tddft
    Mode sTDDFT
    Ethresh 5.0
    maxcore 5000
end

%pal
  nprocs 6
  end
* xyz 0 1
   C       -3.22681         1.16707        -2.04517
   C       -2.08803         1.91015        -2.25185
   C       -0.83649         1.35873        -2.59001
   N        0.20985         0.97434        -2.86851
   C       -1.99051         3.31213        -2.15501
   N       -1.82184         4.44761        -2.09249
   C       -3.30720        -0.28860        -2.14136
   C       -4.63209        -0.69063        -1.84161
   C       -5.03160        -2.00371        -1.85047
   C       -4.07528        -2.97310        -2.17368
   C       -2.75495        -2.56428        -2.47164
   C       -2.35130        -1.23388        -2.46074
   S       -1.73524        -3.92109        -2.84581
   C       -3.08009        -5.00359        -2.60089
   C       -4.23323        -4.38389        -2.25588
  Br       -2.83491        -6.85020        -2.82400
   C       -5.43933         0.50719        -1.54498
   O       -6.62090         0.52085        -1.23885
   C       -4.54164         1.65112        -1.69405
   C       -4.90921         2.97031        -1.54404
   C       -6.14786         3.52255        -1.22314
   S       -7.66075         2.69728        -0.86861
   C       -8.53051         4.18418        -0.62485
   C       -7.68746         5.28379        -0.81344
   C       -6.36878         4.90003        -1.13822
   S       -5.37669         6.29649        -1.34535
   C       -6.80189         7.26149        -0.98182
   N       -7.88366         6.62924        -0.73708
   C       -9.90164         4.17488        -0.28443
   C      -10.64340         5.30284        -0.14537
   C      -12.01912         5.28370         0.22183
   C      -12.83347         6.35072         0.34763
   C      -12.46268         7.76364         0.04256
   C      -14.27989         6.14990         0.73098
   N      -15.11975         6.16032        -0.44873
   C      -15.61664         7.29531        -0.98750
   C      -16.10897         7.38962        -2.25285
   C      -16.68746         8.55798        -2.77534
   C      -17.22564         8.66606        -4.03232
   C      -17.79208         9.81586        -4.62949
   C      -18.26019         9.62236        -5.89492
   C      -18.09890         8.30382        -6.37078
   S      -17.31370         7.31473        -5.15968
   C      -18.49233         7.78880        -7.59199
   C      -19.11403         8.45304        -8.66684
   C      -19.39158         7.64771        -9.73213
   C      -19.01294         6.29427        -9.56817
   S      -18.26791         6.09604        -7.99058
   C      -19.22407         5.31044       -10.50618
   C      -18.93878         3.94232       -10.49371
   S      -19.43834         3.02141       -11.91509
   C      -18.85763         1.49596       -11.31270
   C      -18.29288         1.69811       -10.05752
   C      -18.33652         3.04930        -9.60301
   N      -17.74352         3.04454        -8.38399
   N      -17.33744         1.81434        -8.03750
   C      -17.64874         0.99455        -9.00860
   C      -18.97397         0.27384       -12.03309
   C      -19.53568         0.14482       -13.23867
   H       -6.04910        -2.27598        -1.61766
   H       -1.33258        -0.97603        -2.69642
   H       -5.15805        -4.89795        -2.06746
   H       -4.14127         3.71847        -1.70342
   H       -6.72776         8.33124        -0.97493
   H      -10.35137         3.20075        -0.14288
   H      -10.15350         6.25024        -0.31010
   H      -12.42828         4.30347         0.44018
   H      -11.43838         7.85520        -0.30072
   H      -12.59089         8.38369         0.93050
   H      -13.12346         8.15782        -0.73231
   H      -14.61752         6.95096         1.39343
   H      -14.41679         5.19138         1.23866
   H      -14.97323         5.39198        -1.08949
   H      -15.66983         8.14251        -0.31654
   H      -16.06491         6.52365        -2.90054
   H      -16.71039         9.44145        -2.15035
   H      -17.83558        10.75342        -4.10318
   H      -18.72169        10.38755        -6.49305
   H      -19.33973         9.50360        -8.62981
   H      -19.86484         7.98483       -10.63759
   H      -19.70965         5.65288       -11.41269
   H      -17.58972         3.81381        -7.75432
   H      -17.41327        -0.04808        -8.94126
   H      -18.56263        -0.58922       -11.52497
   H      -19.94825         0.99502       -13.75626
   H      -19.59494        -0.80669       -13.73505
*
