# ORCA input file
# SCF done       -178.689729658290          0.000414556786
! CAM-B3LYP def2-SVP def2/J RIJCOSX Grid4 TightSCF
%maxcore 5000
%tddft
    Mode sTDDFT
    Ethresh 5.0
    maxcore 5000
end

%pal
  nprocs 6
  end
* xyz 0 1
   C       -4.36508         7.66005         4.86225
   C       -3.01546         7.68769         5.11450
   C       -2.45221         7.78821         6.40261
   N       -1.93520         7.86179         7.42535
   C       -2.01019         7.63894         4.12747
   N       -1.13564         7.61651         3.38316
   C       -5.42066         7.78501         5.86019
   C       -6.67416         7.79755         5.20025
   C       -7.86515         7.91183         5.87422
   C       -7.81779         8.02726         7.26766
   C       -6.56132         8.01056         7.91893
   C       -5.35657         7.88949         7.23736
   S       -6.73242         8.15730         9.64178
   C       -8.46531         8.24109         9.46600
   C       -8.89606         8.16246         8.18469
  Br       -9.54167         8.42103        10.99075
   C       -6.46895         7.65803         3.74615
   O       -7.32688         7.48913         2.90992
   C       -4.99177         7.59640         3.56100
   C       -4.38148         7.34443         2.36504
   C       -4.99032         7.56397         1.10975
   O       -4.52474         6.90077         0.01110
   C       -5.96007         8.46263         0.69371
   C       -6.80917         9.58607         1.12729
   O       -6.92665        10.12949         2.19257
   N       -7.44994         9.97642        -0.04447
   C       -7.06754         9.28403        -1.19382
   O       -7.47670         9.50459        -2.30454
   C       -6.08921         8.31519        -0.69946
   C       -5.19130         7.32710        -1.09467
   C       -4.92956         6.80767        -2.37685
   C       -4.03795         5.79537        -2.59214
   C       -3.65291         5.18842        -3.80788
   C       -3.74108         5.72771        -5.09325
   O       -3.44732         4.98678        -6.20908
   C       -2.97949         3.72348        -6.00177
   C       -2.78462         3.21137        -4.68813
   C       -2.28532         1.94942        -4.68467
   S       -2.04961         1.37248        -6.29221
   C       -2.62827         2.84411        -6.97322
   O       -3.10395         3.94060        -3.58273
   C       -4.04392         7.07521        -5.37038
   C       -4.12675         7.55351        -6.65797
   C       -4.36998         8.88130        -6.99466
   C       -4.38200         9.32420        -8.30574
   C       -4.62304        10.62879        -8.78662
   C       -4.53474        10.74858       -10.14648
   C       -4.21373         9.54163       -10.79645
   S       -4.04294         8.24565        -9.64007
   C       -4.01068         9.28042       -12.14442
   C       -4.07958        10.13915       -13.25957
   C       -3.79397         9.52036       -14.44157
   C       -3.48129         8.14154       -14.31887
   S       -3.57644         7.66544       -12.63703
   C       -3.14953         7.29987       -15.35291
   C       -2.81482         5.93454       -15.27691
   S       -2.44005         5.05353       -16.75494
   C       -2.14176         3.56361       -15.95518
   C       -2.31590         3.70806       -14.59882
   C       -2.69255         5.03723       -14.22647
   O       -2.84485         5.12296       -12.88979
   C       -2.57656         3.88371       -12.40490
   N       -2.66778         3.70882       -11.00735
   O       -2.42621         2.59480       -10.57418
   O       -2.97625         4.66595       -10.32782
   C       -2.24959         2.97817       -13.37991
   H       -8.80305         7.91972         5.34176
   H       -4.42561         7.87648         7.77936
   H       -9.93069         8.19768         7.89567
   H       -3.37171         6.95701         2.33203
   H       -8.11883        10.73283        -0.06640
   H       -5.52505         7.23678        -3.16626
   H       -3.60969         5.31787        -1.71921
   H       -2.04680         1.33695        -3.84077
   H       -2.67212         2.97016        -8.03508
   H       -4.14893         7.75531        -4.54316
   H       -3.99061         6.85071        -7.47011
   H       -4.55380         9.60452        -6.21153
   H       -4.85413        11.44067        -8.11981
   H       -4.68633        11.66623       -10.68637
   H       -4.33403        11.17977       -13.16591
   H       -3.79347        10.00967       -15.39954
   H       -3.13865         7.72697       -16.34668
   H       -1.86330         2.69655       -16.51618
   H       -2.00106         1.94828       -13.22935
*
