# ORCA input file
# SCF done       -171.707438608535          0.000895402129
! CAM-B3LYP def2-SVP def2/J RIJCOSX Grid4 TightSCF
%maxcore 5000
%tddft
    Mode sTDDFT
    Ethresh 5.0
    maxcore 5000
end

%pal
  nprocs 6
  end
* xyz 0 1
   C       -9.94433        -0.18067         2.17658
   C       -9.47296        -0.69542         3.35585
   C      -10.29846        -1.24493         4.35896
   N      -10.92282        -1.70984         5.20254
   C       -8.12041        -0.68076         3.76097
   N       -7.05342        -0.66023         4.18305
   C      -11.34583        -0.02628         1.81313
   C      -11.42340         0.74464         0.62769
   C      -12.61888         1.07415         0.03645
   C      -13.79433         0.61714         0.64129
   C      -13.70654        -0.15764         1.82313
   C      -12.49794        -0.48759         2.42324
   S      -15.27727        -0.62792         2.39710
   C      -16.02102         0.21438         1.06347
   C      -15.14014         0.81553         0.22861
  Br      -17.88847         0.21315         0.89424
   C      -10.06291         1.09350         0.16622
   O       -9.78937         1.75193        -0.81001
   C       -9.14261         0.40826         1.11736
   C       -7.80749         0.19032         0.94569
   C       -6.93693         0.75751        -0.01250
   O       -7.22923         1.85521        -0.75639
   C       -5.64999         0.35330        -0.33832
   C       -4.62333        -0.66563        -0.07799
   O       -4.62036        -1.62104         0.64921
   N       -3.57725        -0.29121        -0.92224
   C       -3.81735         0.83460        -1.70204
   O       -3.03984         1.30862        -2.49416
   C       -5.17090         1.24233        -1.32152
   C       -6.18653         2.16547        -1.55269
   C       -6.26381         3.27871        -2.42889
   C       -5.22844         3.61506        -3.23421
   C       -5.25381         4.70582        -4.15044
   C       -4.26490         5.03323        -5.00658
   C       -2.95225         4.33480        -5.11773
   C       -4.42059         6.22981        -5.91583
   N       -3.58604         7.33023        -5.48044
   C       -2.26675         7.39379        -5.80522
   C       -1.34805         8.11966        -5.13057
   C        0.02124         8.23595        -5.49844
   S        1.03999         9.34119        -4.59543
   C        2.39555         8.89668        -5.55210
   C        2.07243         7.94119        -6.51302
   C        0.73321         7.57173        -6.48472
   C        3.29295         7.55998        -7.31887
   C        3.64051         6.08087        -7.12751
   C        3.11146         7.88604        -8.80313
   C        4.33292         8.45165        -6.68082
   C        3.76922         9.21233        -5.65567
   S        4.90450        10.25082        -4.89496
   C        6.15735         9.65444        -5.96730
   C        5.68677         8.70141        -6.85445
   C        7.47574        10.16187        -5.85859
   S        8.79432         9.59778        -6.86491
   C        9.95552        10.64776        -6.15120
   C        9.37098        11.41118        -5.17298
   C        7.97612        11.12824        -5.01698
   O        7.43079        11.89954        -4.04931
   C        8.45625        12.66612        -3.59079
   N        8.17564        13.59099        -2.55607
   O        9.11190        14.26505        -2.16702
   O        7.04181        13.65016        -2.13408
   C        9.64905        12.42781        -4.21709
   H      -12.64652         1.66639        -0.86478
   H      -12.48110        -1.08521         3.31924
   H      -15.42606         1.37439        -0.64366
   H       -7.30927        -0.52793         1.58525
   H       -2.70957        -0.80644        -0.96735
   H       -7.19249         3.83044        -2.42200
   H       -4.33399         3.01298        -3.18518
   H       -6.16323         5.29504        -4.16152
   H       -2.83450         3.53796        -4.39278
   H       -2.13923         5.04978        -4.98067
   H       -2.84696         3.91100        -6.11669
   H       -5.45858         6.57241        -5.92762
   H       -4.12666         5.97053        -6.93689
   H       -3.83267         7.72068        -4.58088
   H       -1.99947         6.86776        -6.71045
   H       -1.65312         8.66570        -4.24819
   H        0.28849         6.84559        -7.14009
   H        2.84477         5.45501        -7.52411
   H        3.76593         5.85720        -6.07061
   H        4.56608         5.84432        -7.64647
   H        2.30658         7.28677        -9.22184
   H        4.02818         7.67276        -9.34733
   H        2.86615         8.93782        -8.93076
   H        6.32453         8.23177        -7.58197
   H       10.96917        10.63375        -6.49218
   H       10.57752        12.91839        -4.01097
*
