# ORCA input file
# SCF done       -180.444025410480          0.000878682237
! CAM-B3LYP def2-SVP def2/J RIJCOSX Grid4 TightSCF
%maxcore 5000
%tddft
    Mode sTDDFT
    Ethresh 5.0
    maxcore 5000
end

%pal
  nprocs 6
  end
* xyz 0 1
   C       -4.03897         2.89810         4.81986
   C       -4.32846         2.97548         3.48136
   C       -5.50703         3.54617         2.96153
   N       -6.45347         3.99570         2.49132
   C       -3.51683         2.42485         2.46771
   N       -2.92289         1.95545         1.60429
   C       -4.91398         3.30463         5.91226
   C       -4.35049         2.85101         7.12969
   C       -4.94162         3.08258         8.34703
   C       -6.14438         3.79796         8.36340
   C       -6.69705         4.24897         7.14178
   C       -6.10063         4.01209         5.90891
   S       -8.17837         5.12223         7.39370
   C       -8.03799         4.87101         9.11343
   C       -6.93961         4.17022         9.48192
  Br       -9.35456         5.55765        10.25975
   C       -3.07681         2.15018         6.85532
   O       -2.34888         1.63684         7.67903
   C       -2.86330         2.28785         5.39965
   C       -1.66736         2.10277         4.75762
   C       -0.51073         1.48134         5.27222
   S        1.02606         2.19139         4.82415
   C        1.85132         1.16925         5.92215
   C        1.03577         0.28382         6.55920
   C        1.52578        -0.73017         7.53331
   C       -0.32871         0.42101         6.16419
   C       -1.32083        -0.53995         6.54853
   C       -2.43227        -0.85625         5.84922
   C       -3.33559        -1.87855         6.25524
   C       -4.46294        -2.20209         5.58263
   C       -5.30396        -3.29256         5.97251
   C       -6.43223        -3.70082         5.36624
   C       -7.07556        -3.01272         4.20425
   C       -7.12657        -4.97404         5.80795
   N       -6.20151        -5.93832         6.34680
   C       -6.10497        -6.28501         7.64167
   C       -4.96341        -6.79332         8.18722
   C       -4.81726        -7.23668         9.50949
   C       -3.58745        -7.48229        10.07286
   C       -3.27460        -7.95037        11.36783
   C       -1.93746        -7.98193        11.64667
   C       -1.12547        -7.51589        10.59215
   S       -2.09843        -7.10989         9.20767
   C        0.24183        -7.27801        10.56841
   C        1.21461        -7.49789        11.55715
   C        2.45609        -7.02518        11.22057
   C        2.51377        -6.40129         9.95930
   S        0.95651        -6.48701         9.17896
   C        3.58894        -5.73383         9.38497
   C        3.45814        -5.07073         8.17833
   C        4.31262        -4.21981         7.49727
   C        5.69352        -3.86576         7.64170
   C        6.70177        -4.60829         8.21607
   C        8.03984        -4.18284         8.30503
   N        9.14382        -3.88500         8.42227
   C        6.55350        -5.92150         8.69781
   N        6.51425        -7.00831         9.06958
   C        5.90272        -2.61413         6.90517
   C        4.72263        -2.31296         6.18305
   C        3.70350        -3.33537         6.49214
   O        2.56769        -3.39132         6.05459
   C        4.60139        -1.20508         5.38298
   C        5.69714        -0.33774         5.30199
   C        6.86895        -0.64157         6.03067
   C        6.99454        -1.77303         6.83127
   S        8.09624         0.56849         5.79850
   C        7.02880         1.45339         4.74091
   C        5.81720         0.87518         4.56799
  Br        7.61286         3.06177         3.96807
   H       -4.48963         2.72651         9.25943
   H       -6.55315         4.38319         5.00430
   H       -6.69655         3.92762        10.50028
   H       -1.53695         2.58470         3.79414
   H        2.91174         1.27925         6.04592
   H        2.56880        -0.54443         7.77947
   H        1.44605        -1.72834         7.10312
   H        0.93657        -0.69745         8.44784
   H       -1.09752        -1.10556         7.44218
   H       -2.65512        -0.34571         4.92138
   H       -3.08124        -2.42582         7.15454
   H       -4.71968        -1.64902         4.69023
   H       -4.94931        -3.84902         6.83265
   H       -6.82668        -1.95658         4.17775
   H       -8.15813        -3.11207         4.26097
   H       -6.74819        -3.46469         3.26671
   H       -7.63260        -5.41433         4.94001
   H       -7.88811        -4.75530         6.56327
   H       -5.36261        -6.06178         5.79363
   H       -6.99769        -6.14786         8.23702
   H       -4.07679        -6.82388         7.56543
   H       -5.69723        -7.36439        10.12516
   H       -4.04449        -8.24575        12.05911
   H       -1.52070        -8.30145        12.58488
   H        0.98517        -7.98591        12.48779
   H        3.32458        -7.09580        11.85088
   H        4.50772        -5.70722         9.94893
   H        2.47252        -5.11703         7.71855
   H        3.68985        -1.01110         4.83929
   H        7.90957        -1.95653         7.36930
   H        5.04031         1.28339         3.94685
*
