# ORCA input file
# SCF done       -161.418751306856          0.000364390388
! CAM-B3LYP def2-SVP def2/J RIJCOSX Grid4 TightSCF
%maxcore 5000
%tddft
    Mode sTDDFT
    Ethresh 5.0
    maxcore 5000
end

%pal
  nprocs 6
  end
* xyz 0 1
   C        6.30382       -16.56106        -3.45539
   C        6.46262       -15.86078        -2.32439
   C        6.82782       -16.35456        -1.02740
   C        6.90736       -15.40484        -0.06916
   C        6.61077       -14.08853        -0.52006
   S        6.23427       -14.10638        -2.23163
   C        6.60003       -12.92657         0.21445
   C        6.93132       -12.75009         1.58078
   C        6.85088       -11.45990         2.00222
   C        6.44588       -10.54332         0.99834
   S        6.15186       -11.39070        -0.50591
   C        6.32962        -9.18008         1.11685
   C        5.93290        -8.35738         0.05429
   O        5.52187        -8.92574        -1.11835
   C        5.90724        -6.97867        -0.10702
   C        6.18047        -5.70941         0.55840
   O        6.56770        -5.45734         1.67281
   N        5.89964        -4.75938        -0.42392
   C        5.49810        -5.28017        -1.65321
   O        5.25328        -4.61733        -2.63295
   C        5.49308        -6.72133        -1.43492
   C        5.25127        -7.95289        -2.03771
   C        4.83750        -8.33145        -3.32057
   C        4.68858        -7.43753        -4.35163
   C        4.33182        -7.79872        -5.64829
   C        4.36301        -6.91319        -6.71126
   C        3.96742        -7.13936        -8.04501
   C        4.14663        -6.06199        -8.87094
   C        4.71941        -4.95238        -8.22575
   S        4.98951        -5.29305        -6.53631
   C        5.08842        -3.71540        -8.74239
   C        4.84975        -3.15958       -10.01182
   C        5.33540        -1.88744       -10.15046
   C        5.99386        -1.39551        -9.00321
   S        5.97948        -2.60167        -7.73951
   C        6.56547        -0.15190        -8.81477
   C        7.21477         0.19602        -7.63051
   O        7.37839        -0.74256        -6.65056
   C        7.77267         1.38921        -7.17210
   C        8.02743         2.78513        -7.52300
   O        7.77783         3.41652        -8.51898
   N        8.67036         3.29295        -6.39350
   C        8.85774         2.37894        -5.35665
   O        9.39257         2.62600        -4.30556
   C        8.26691         1.14534        -5.87697
   C        8.01753        -0.19307        -5.57644
   C        8.32935        -0.96187        -4.44918
   C        8.12541        -2.31935        -4.36764
   C        8.44677        -3.06798        -3.23755
   C        8.36267        -4.44091        -3.13175
   C        8.64960        -5.19714        -1.97136
   C        8.50063        -6.54209        -2.12683
   C        8.10790        -6.92648        -3.43039
   S        7.91549        -5.51017        -4.44245
   C        7.87944        -8.20924        -3.88226
   C        7.94267        -9.40836        -3.11544
   C        7.62052       -10.52723        -3.79910
   C        7.29043       -10.29871        -5.17658
   S        7.45720        -8.57026        -5.53859
   C        6.90366       -11.20443        -6.08447
   H        6.45197       -17.62620        -3.46645
   H        6.02378       -16.08912        -4.37921
   H        7.01171       -17.40294        -0.87293
   H        7.16375       -15.59825         0.95734
   H        7.22762       -13.57284         2.20664
   H        7.07082       -11.12734         3.00120
   H        6.57647        -8.69623         2.04857
   H        5.99439        -3.76711        -0.26416
   H        4.68168        -9.38926        -3.48230
   H        4.89913        -6.39296        -4.15890
   H        4.02828        -8.81809        -5.84794
   H        3.55529        -8.08237        -8.35890
   H        3.90018        -6.05160        -9.91767
   H        4.31551        -3.68997       -10.77991
   H        5.23873        -1.29156       -11.04069
   H        6.50749         0.59520        -9.59002
   H        8.97825         4.25251        -6.33178
   H        8.78224        -0.42491        -3.62827
   H        7.70537        -2.83578        -5.22107
   H        8.80015        -2.53780        -2.36160
   H        8.94937        -4.72466        -1.05205
   H        8.67856        -7.26064        -1.34652
   H        8.21102        -9.39521        -2.07424
   H        7.58428       -11.51723        -3.38074
   H        6.81508       -12.24214        -5.81504
   H        6.67429       -10.92889        -7.09749
*
