# ORCA input file
# SCF done       -217.647773910085          0.000790724908
! CAM-B3LYP def2-SVP def2/J RIJCOSX Grid4 TightSCF
%maxcore 5000
%tddft
    Mode sTDDFT
    Ethresh 5.0
    maxcore 5000
end

%pal
  nprocs 6
  end
* xyz 0 1
   C        3.05134        -2.27546        -3.61335
   C        2.68382        -2.85349        -2.40704
   C        2.48130        -4.27694        -2.29209
   N        2.10731        -4.80514        -1.12852
   C        1.93093        -4.03228        -0.08131
   C        2.15350        -2.61747        -0.19128
   N        2.51265        -2.06836        -1.31947
   C        1.96941        -1.79413         0.95153
   N        1.80755        -1.16136         1.89165
   C        1.49917        -4.61020         1.13519
   N        1.13262        -5.05292         2.12682
   C        2.65026        -5.16744        -3.38877
   C        3.01441        -4.55559        -4.61250
   C        3.21100        -3.12156        -4.70600
   N        3.55435        -2.75001        -5.94506
   S        3.62276        -4.03863        -6.88386
   N        3.22415        -5.15149        -5.78828
   C        2.45113        -6.55130        -3.20095
   S        2.05322        -7.20258        -1.62421
   C        1.97335        -8.85226        -2.19591
   C        2.23420        -8.89248        -3.56507
   C        2.50944        -7.60830        -4.11542
   N        2.74942        -7.80348        -5.42619
   N        2.65061        -9.09828        -5.75376
   C        2.34470        -9.77109        -4.67173
   C        1.65323        -9.93181        -1.34395
   C        1.52204        -9.78778        -0.00408
   C        1.20701       -10.80908         0.95394
   C        0.29201       -11.87527         0.80104
   C       -0.61976       -12.01861        -0.35123
   O       -0.74050       -11.31571        -1.30981
   S       -1.66580       -13.46124        -0.10866
   C       -0.94320       -13.84567         1.48475
   O       -1.29731       -14.77787         2.14184
   C        0.08481       -12.83255         1.80286
   C        0.73120       -12.78874         3.04648
   C        1.59517       -11.70218         3.20734
   C        1.83014       -10.76816         2.21463
   C        2.88782        -9.85618         2.71444
   O        3.40732        -8.92112         2.19116
   O        3.23133       -10.28936         3.97537
   C        2.50923       -11.39775         4.33434
   O        2.65957       -11.96485         5.37142
   C        0.58330       -13.75449         4.11939
   C        0.87975       -15.05192         3.99134
   C        0.80967       -15.99512         5.07455
   C        1.73064       -16.98782         5.41159
   C        1.24767       -17.78067         6.49089
   C        0.02256       -17.37126         6.94241
   S       -0.60093       -16.02117         6.08279
   C       -0.52772       -18.33352         7.91956
   C        0.76504       -18.97688         8.42940
   C        1.75115       -19.00398         7.23426
   C        1.67698       -20.26601         6.35150
   C        0.34723       -20.52741         5.65330
   C        3.19930       -18.87660         7.75662
   C        3.59175       -17.48719         8.24803
   C        0.30245       -20.14886         9.27426
   C       -0.73927       -19.52686        10.21906
   S       -1.40497       -17.96401         9.47488
   C        3.03542       -17.15675         4.85243
   C        3.68156       -16.23720         4.09854
   C        5.02577       -16.25303         3.61163
   C        5.98398       -17.30681         3.60406
   C        5.66396       -18.73882         3.76064
   O        4.59741       -19.27222         3.87470
   S        7.16216       -19.71648         3.67840
   C        8.18296       -18.29255         3.31098
   O        9.34204       -18.39844         3.04817
   C        7.34151       -17.07567         3.33954
   C        7.86132       -15.80915         3.01383
   C        6.88196       -14.83153         2.81828
   C        5.53499       -15.03815         3.09686
   C        4.83480       -13.78889         2.74306
   O        3.66731       -13.50943         2.75684
   O        5.77139       -12.89333         2.30064
   C        7.03421       -13.44641         2.32668
   O        8.00367       -12.84690         1.98124
   C        9.26716       -15.47068         2.85354
   C       10.22773       -15.81826         3.69944
   H        3.20514        -1.21384        -3.69406
   H        2.98550        -7.08368        -6.09808
   H        2.21222       -10.83293        -4.70730
   H        1.54462       -10.89641        -1.81893
   H        1.76024        -8.82396         0.42949
   H        0.35633       -13.34420         5.09440
   H        1.21130       -15.44119         3.03689
   H       -1.18289       -19.03912         7.39808
   H        1.19055       -18.24839         9.13063
   H        2.44308       -20.17572         5.57840
   H        1.93668       -21.12701         6.97147
   H        0.01744       -19.64975         5.10260
   H       -0.43151       -20.81627         6.35362
   H        0.47130       -21.34250         4.94403
   H        3.31810       -19.59347         8.57272
   H        3.89476       -19.17593         6.97060
   H        3.56148       -16.76133         7.43918
   H        4.60483       -17.51423         8.64287
   H        2.93495       -17.13751         9.04073
   H        1.11182       -20.59555         9.85077
   H       -0.15464       -20.92393         8.65874
   H       -0.29817       -19.23725        11.17130
   H       -1.58244       -20.18825        10.40798
   H        3.51750       -18.07784         5.12854
   H        3.17818       -15.30017         3.91560
   H        9.47978       -14.80345         2.02920
   H       10.04015       -16.42179         4.57137
   H       11.24189       -15.49347         3.54961
*
