# ORCA input file
# SCF done       -169.545935802160          0.000401118907
! CAM-B3LYP def2-SVP def2/J RIJCOSX Grid4 TightSCF
%maxcore 5000
%tddft
    Mode sTDDFT
    Ethresh 5.0
    maxcore 5000
end

%pal
  nprocs 6
  end
* xyz 0 1
   C       -6.34995        -2.00594        -4.41663
   C       -6.94223        -2.98024        -3.65323
   C       -7.59217        -4.10960        -4.19108
   N       -8.12448        -5.05057        -4.57817
   C       -7.04381        -2.95813        -2.24590
   N       -7.20773        -2.99376        -1.11026
   C       -6.37372        -1.93648        -5.87170
   C       -5.82885        -0.69314        -6.27162
   C       -5.68538        -0.33437        -7.58937
   C       -6.09141        -1.25363        -8.56213
   C       -6.65799        -2.48365        -8.15406
   C       -6.80970        -2.84341        -6.82062
   S       -7.08893        -3.47087        -9.51802
   C       -6.47939        -2.24759       -10.60088
   C       -5.99860        -1.14631        -9.97695
  Br       -6.53534        -2.53809       -12.45442
   C       -5.44024         0.08920        -5.07880
   O       -5.00088         1.21705        -5.09180
   C       -5.67144        -0.82052        -3.92303
   C       -5.18016        -0.68273        -2.65445
   C       -4.55554         0.44659        -2.07963
   O       -4.58832         1.67517        -2.65259
   C       -3.86149         0.55630        -0.88203
   C       -3.35486        -0.19178         0.27499
   O       -3.42496        -1.35711         0.55983
   N       -2.70694         0.78430         1.03323
   C       -2.71751         2.06835         0.49224
   O       -2.20437         3.03678         0.99024
   C       -3.46791         1.90780        -0.75617
   C       -3.93987         2.56912        -1.87839
   C       -3.84647         3.93018        -2.29200
   C       -4.36026         4.31721        -3.47975
   C       -4.39894         5.62741        -4.06354
   C       -3.59178         6.67937        -3.85484
   C       -2.41129         6.68618        -2.93944
   C       -3.80266         7.98528        -4.59781
   N       -4.92648         8.00404        -5.49564
   C       -6.19077         8.22572        -5.05542
   C       -7.30688         7.72688        -5.64509
   C       -8.61560         8.01984        -5.21589
   C       -9.73306         7.35690        -5.64758
   C      -11.07713         7.59348        -5.26803
   C      -11.97481         6.72590        -5.80920
   C      -11.39295         5.73863        -6.63924
   S       -9.66630         5.97995        -6.74847
   C      -12.02208         4.68073        -7.26425
   C      -13.39904         4.36120        -7.25555
   C      -13.70399         3.21811        -7.92540
   C      -12.58496         2.55997        -8.50221
   S      -11.12575         3.47602        -8.17454
   C      -12.62932         1.38192        -9.19623
   C      -11.55503         0.68176        -9.77327
   S       -9.88769         1.20160        -9.73573
   C       -9.40092        -0.16772       -10.65621
   C      -10.43956        -0.99848       -10.97316
   C      -11.65655        -0.51346       -10.46248
   S      -13.21457        -1.32229       -10.75025
   O      -13.90736        -0.61273       -11.79362
   O      -13.91158        -1.49028        -9.50143
   C      -12.69667        -2.94411       -11.38642
   C      -11.61374        -2.69114       -12.41453
   C      -10.30327        -2.26972       -11.75269
   H       -5.26334         0.61993        -7.86241
   H       -7.23264        -3.79900        -6.55984
   H       -5.58443        -0.29643       -10.48873
   H       -5.22907        -1.52797        -1.97997
   H       -2.25251         0.57030         1.90960
   H       -3.38345         4.59899        -1.58596
   H       -4.84204         3.54743        -4.07096
   H       -5.18930         5.72997        -4.79619
   H       -1.93010         5.71137        -2.92121
   H       -2.72015         6.92915        -1.92269
   H       -1.68643         7.43441        -3.25378
   H       -2.89758         8.21402        -5.17292
   H       -3.93548         8.78551        -3.86144
   H       -4.84649         7.38052        -6.28844
   H       -6.26655         8.86593        -4.18680
   H       -7.20421         7.03656        -6.47285
   H       -8.74995         8.79685        -4.47507
   H      -11.33477         8.39875        -4.60254
   H      -13.03342         6.75683        -5.62458
   H      -14.12227         4.98056        -6.75609
   H      -14.69364         2.81005        -8.02553
   H      -13.59433         0.90902        -9.31954
   H       -8.37013        -0.27163       -10.92713
   H      -13.58374        -3.39941       -11.81850
   H      -12.35358        -3.52516       -10.53477
   H      -11.43980        -3.58964       -13.01092
   H      -11.96154        -1.89989       -13.08293
   H       -9.53362        -2.14004       -12.51619
   H       -9.96698        -3.06704       -11.08022
*
