# ORCA input file
# SCF done       -154.112557788309          0.000448214992
! CAM-B3LYP def2-SVP def2/J RIJCOSX Grid4 TightSCF
%maxcore 5000
%tddft
    Mode sTDDFT
    Ethresh 5.0
    maxcore 5000
end

%pal
  nprocs 6
  end
* xyz 0 1
   C      -13.72669        11.39993         0.26026
   C      -14.66766        11.13299         1.22277
   C      -15.35234        12.12132         1.95743
   N      -15.93899        12.88407         2.58374
   C      -15.06846         9.83387         1.59312
   N      -15.42275         8.79233         1.92201
   C      -13.28463        12.72641        -0.15931
   C      -12.31090        12.58587        -1.18304
   C      -11.70167        13.66362        -1.77909
   C      -12.06826        14.94236        -1.34657
   C      -13.04000        15.07334        -0.32611
   C      -13.65696        13.98305         0.27701
   S      -13.34217        16.73936         0.05850
   C      -12.17558        17.23229        -1.14022
   C      -11.58854        16.20259        -1.79588
  Br      -11.83964        19.05738        -1.41215
   C      -12.10432        11.15809        -1.44421
   O      -11.33771        10.65271        -2.26413
   C      -12.99098        10.43917        -0.52841
   C      -13.03057         9.06459        -0.49454
   N      -12.25032         8.36000        -1.32082
   C      -12.13814         7.01231        -1.41721
   S      -13.04453         5.93913        -0.39822
   C      -12.27488         4.59512        -1.17777
   N      -12.62856         3.30603        -0.75837
   O      -12.08672         2.36570        -1.30949
   O      -13.45780         3.22734         0.13093
   C      -11.38300         4.95565        -2.15223
   C      -11.28741         6.35062        -2.31406
   C      -10.45703         7.04707        -3.26384
   C       -9.58163         6.46402        -4.10095
   C       -8.77433         7.15017        -5.07976
   C       -8.30047         8.40429        -5.04325
   C       -8.42362         9.34973        -3.89201
   C       -7.51257         8.93673        -6.21901
   N       -6.13479         9.19383        -5.86800
   C       -5.54846        10.39178        -5.68747
   C       -6.10698        11.62055        -5.89522
   C       -5.45749        12.86065        -5.75329
   C       -4.17169        13.16979        -5.37651
   C       -3.65419        14.48581        -5.30465
   C       -2.35148        14.56908        -4.91157
   C       -1.75660        13.32020        -4.64047
   S       -2.90764        12.03548        -4.90946
   C       -0.46353        13.06246        -4.21474
   C        0.56798        13.98705        -3.97020
   C        1.73459        13.41298        -3.54842
   C        1.68317        12.00845        -3.43626
   S        0.09522        11.43246        -3.89425
   C        2.70475        11.17131        -3.02494
   C        2.58229         9.79005        -2.92731
   C        3.56528         8.91708        -2.51596
   S        3.26371         7.19207        -2.43853
   C        4.94937         6.86010        -1.84829
   O        5.33890         5.74855        -1.60542
   C        5.62990         8.12657        -1.75376
   C        4.89494         9.20619        -2.10717
   H      -10.96382        13.52705        -2.55413
   H      -14.39033        14.13494         1.05106
   H      -10.84735        16.32628        -2.56412
   H      -13.67078         8.51429         0.18205
   H      -11.66452         8.95282        -1.93635
   H      -10.83715         4.22518        -2.71976
   H      -10.59361         8.11482        -3.32270
   H       -9.48303         5.38688        -4.10439
   H       -8.52553         6.54373        -5.94320
   H       -9.32701         9.95458        -3.97383
   H       -7.57458        10.03072        -3.87295
   H       -8.46278         8.81127        -2.94770
   H       -7.96555         9.86570        -6.56810
   H       -7.53256         8.21585        -7.04293
   H       -5.60460         8.37708        -5.60735
   H       -4.51900        10.32583        -5.36882
   H       -7.13956        11.68342        -6.20746
   H       -6.06715        13.72637        -5.98424
   H       -4.26442        15.33749        -5.55061
   H       -1.80907        15.49130        -4.80800
   H        0.43184        15.04456        -4.10941
   H        2.62934        13.96201        -3.31342
   H        3.64122        11.64505        -2.76683
   H        1.62613         9.35868        -3.19678
   H        6.65181         8.14785        -1.41853
   H        5.26869        10.21524        -2.08725
*
