# ORCA input file
# SCF done       -203.401872602085          0.000980988024
! CAM-B3LYP def2-SVP def2/J RIJCOSX Grid4 TightSCF
%maxcore 5000
%tddft
    Mode sTDDFT
    Ethresh 5.0
    maxcore 5000
end

%pal
  nprocs 6
  end
* xyz 0 1
   C       -5.85997         3.97446        -4.73146
   C       -5.88322         2.79058        -5.42912
   C       -4.74547         1.99939        -5.68414
   N       -3.86013         1.30806        -5.92525
   C       -7.02410         2.19338        -6.00189
   N       -7.89408         1.63986        -6.50928
   C       -4.66010         4.58872        -4.16665
   C       -5.01950         5.82010        -3.56884
   C       -4.10914         6.63498        -2.94278
   C       -2.77584         6.21305        -2.90074
   C       -2.42548         4.98144        -3.50010
   C       -3.34701         4.15823        -4.13624
   S       -0.72759         4.64750        -3.32899
   C       -0.51704         6.14796        -2.46627
   C       -1.65573         6.86324        -2.31270
  Br        1.18745         6.62710        -1.84497
   C       -6.47494         6.03406        -3.72672
   O       -7.09769         7.00141        -3.33671
   C       -6.97904         4.83882        -4.43422
   C       -8.30375         4.58772        -4.70401
   C       -9.36933         5.43801        -4.37537
   C      -10.66986         5.07265        -4.59066
   C      -11.77834         5.85708        -4.23668
   O      -11.64071         7.09975        -3.69961
   C      -12.87303         7.58095        -3.41740
   C      -13.83574         6.63340        -3.77281
   C      -13.14055         5.53643        -4.30602
   O      -13.65867         4.39196        -4.78322
   O      -15.18592         6.68494        -3.65995
   C      -13.07916         8.85880        -2.84956
   C      -12.11318         9.78349        -2.60519
   C      -12.37117        11.05379        -2.01636
   C      -13.52496        11.32998        -1.35974
   C      -13.93579        12.55716        -0.79343
   S      -12.92176        13.98027        -0.77151
   C      -14.12264        14.89701         0.10097
   C      -15.24585        14.12511         0.33291
   C      -15.15008        12.82214        -0.18208
   C      -16.39790        11.98382        -0.08850
   C      -16.41572        10.75672        -0.83952
   N      -16.50933         9.78541        -1.44087
   C      -17.55022        12.88181        -0.59718
   C      -17.74980        14.09974         0.30956
   C      -16.48606        14.50905         1.08473
   O      -16.53134        13.82526         2.33628
   C      -15.57904        14.26988         3.26525
   C      -13.92973        16.26198         0.44265
   C      -12.95783        17.05016        -0.06674
   C      -12.80259        18.43738         0.21082
   S      -11.19552        19.11368         0.07905
   C      -11.72588        20.66623         0.67687
   C      -13.09238        20.64163         0.91653
   C      -13.69918        19.40484         0.62773
   C      -15.20529        19.37338         0.66846
   C      -15.84275        18.32277        -0.08678
   N      -16.44248        17.56813        -0.70382
   C      -15.69282        20.70645         0.05727
   C      -15.28582        21.89312         0.92509
   C      -13.89995        21.72504         1.57317
   O      -14.14385        21.37678         2.93651
   C      -13.01237        21.43695         3.76415
   C      -10.82228        21.73952         0.83986
   C       -9.50259        21.69898         0.50015
   C       -8.62536        22.78149         0.65823
   C       -7.30729        22.77677         0.27819
   C       -6.38262        23.84417         0.41073
   C       -5.13993        23.57326        -0.06760
   C       -5.00368        22.27173        -0.61121
   S       -6.52115        21.40164        -0.48070
   C       -3.88579        21.70983        -1.18070
   C       -2.60824        22.31459        -1.35123
   C       -1.69439        21.52512        -1.95664
   C       -2.18016        20.22317        -2.31539
   S       -3.87585        20.08062        -1.82369
   C       -1.50928        19.23665        -2.92495
   H       -4.41613         7.56772        -2.49609
   H       -3.02814         3.22777        -4.57495
   H       -1.70716         7.80937        -1.80538
   H       -8.56335         3.65297        -5.18465
   H       -9.15621         6.39189        -3.91740
   H      -10.90609         4.11451        -5.03371
   H      -14.62118         4.43558        -4.70212
   H      -15.46084         7.49687        -3.21507
   H      -14.11265         9.08921        -2.62755
   H      -11.09860         9.56003        -2.90220
   H      -11.60545        11.81362        -2.09554
   H      -14.23202        10.52917        -1.22120
   H      -16.58209        11.73882         0.96681
   H      -18.47360        12.30282        -0.64964
   H      -17.29916        13.20632        -1.60983
   H      -18.51175        13.88692         1.06059
   H      -18.07972        14.94692        -0.29021
   H      -16.51102        15.59211         1.26933
   H      -15.73916        13.68911         4.17140
   H      -15.71266        15.33599         3.48823
   H      -14.55452        14.11192         2.90808
   H      -14.64276        16.67334         1.14164
   H      -12.20022        16.60572        -0.69983
   H      -15.54539        19.31180         1.71159
   H      -16.77833        20.68857        -0.05526
   H      -15.25364        20.80038        -0.93927
   H      -15.99320        22.01222         1.74752
   H      -15.30607        22.80107         0.32274
   H      -13.35553        22.68056         1.54899
   H      -13.35250        21.17652         4.76448
   H      -12.58553        22.44762         3.77688
   H      -12.23494        20.73151         3.44893
   H      -11.22448        22.65561         1.25190
   H       -9.09948        20.78820         0.07420
   H       -9.00890        23.69103         1.10300
   H       -6.67271        24.77968         0.85635
   H       -4.31974        24.26829        -0.04811
   H       -2.41544        23.31863        -1.01712
   H       -0.67955        21.80970        -2.17099
   H       -0.47946        19.36632        -3.20742
   H       -1.97144        18.29320        -3.15022
*
