# ORCA input file
# SCF done       -232.536457128382          0.000477569282
! CAM-B3LYP def2-SVP def2/J RIJCOSX Grid4 TightSCF
%maxcore 5000
%tddft
    Mode sTDDFT
    Ethresh 5.0
    maxcore 5000
end

%pal
  nprocs 6
  end
* xyz 0 1
   C        2.51180        -8.37943        -3.63750
   S        2.38177        -9.58906        -2.43683
   C        4.09125        -9.88179        -2.42573
   C        4.72595        -9.04890        -3.34707
   C        3.81443        -8.18217        -4.03508
   C        4.31216        -7.26729        -4.99218
   C        5.64668        -7.20549        -5.26417
   C        6.16896        -6.23327        -6.27747
   C        6.55840        -8.07030        -4.58090
   C        8.02199        -7.99277        -4.89211
   C        6.10148        -8.95960        -3.65096
   C        4.71322       -10.87141        -1.60130
   C        4.14866       -11.56435        -0.60353
   C        2.78717       -11.34856        -0.10105
   C        1.75808       -12.26832        -0.35722
   C        2.01776       -13.40792        -1.25023
   O        3.12074       -13.85759        -1.48276
   C        0.82091       -13.94249        -1.95695
   C       -0.03484       -13.18078        -2.69036
   S       -1.21367       -14.12762        -3.51002
   C       -0.54573       -15.57338        -2.86947
   C        0.53224       -15.33714        -2.06779
   C        1.24610       -16.36123        -1.26995
   O        1.54840       -16.15283        -0.11434
   C        1.51563       -17.65149        -1.94837
   C        1.66584       -18.79477        -1.16514
   C        1.91495       -20.01781        -1.75645
   C        2.03458       -20.10774        -3.13442
   C        1.91145       -18.97106        -3.91763
   C        1.65025       -17.74628        -3.33160
   C        0.49712       -12.05444         0.20238
   C        0.24143       -10.93142         0.95562
   C        1.23487        -9.96879         1.15059
   C        2.50369       -10.20412         0.63220
   C        0.92937        -8.72040         1.85631
   C        0.16765        -8.71705         2.99090
   C       -0.16028        -7.49077         3.61562
   C       -0.91837        -7.22032         4.73978
   C       -1.53837        -8.21350         5.66511
   C       -1.16279        -7.94599         7.13463
   N       -1.01199        -9.21628         7.82762
   C       -3.06410        -8.26812         5.47745
   N       -3.36982        -8.83095         4.17234
   C       -0.98937        -5.78104         4.85457
   C       -1.66121        -4.98812         5.70634
   C       -1.59527        -3.49835         5.61108
   C       -0.70596        -2.98088         4.52898
   C       -0.06504        -3.78952         3.66465
   C       -0.19018        -5.19555         3.76687
   C        0.30359        -6.24407         3.01773
   C        1.10765        -6.28963         1.85468
   C        1.41382        -7.49070         1.30278
   C       -1.19843        -3.00561         6.98339
   C       -2.06666        -2.94552         7.98623
   C       -1.73005        -2.60818         9.36481
   C       -2.33924        -3.30904        10.41985
   C       -3.26016        -4.43147        10.13412
   O       -3.03953        -5.27332         9.28025
   C       -4.50074        -4.47422        10.92329
   C       -5.04024        -3.45649        11.66353
   S       -6.56048        -3.86776        12.32768
   C       -6.50193        -5.42573        11.58876
   C       -5.36261        -5.61675        10.88061
   C       -5.04789        -6.85433        10.10429
   O       -5.68919        -7.15384         9.12267
   C       -3.97593        -7.71264        10.66030
   C       -3.72069        -8.92907        10.02774
   C       -2.76331        -9.79069        10.52654
   C       -2.03667        -9.43743        11.65321
   C       -2.28041        -8.22837        12.28540
   C       -3.25175        -7.37260        11.80125
   C       -2.00059        -2.99177        11.73427
   C       -1.11226        -1.97652        12.00857
   C       -0.53936        -1.23116        10.97096
   C       -0.84212        -1.58236         9.65498
   C        0.36117        -0.14148        11.26581
   S        1.41541        -0.24157        12.63018
   C        2.12082         1.30851        12.33077
   C        1.56002         1.88576        11.19191
   C        0.54383         1.06754        10.59785
   C       -0.18058         1.57239         9.49482
   C        0.13533         2.77934         8.94042
   C       -0.64856         3.30278         7.77701
   C        1.22479         3.54107         9.46044
   C        1.60828         4.82993         8.80166
   C        1.90257         3.10256        10.56191
   C        3.11916         1.77263        13.25403
   C        3.44863         3.03843        13.50646
   H        1.63107        -7.87338        -3.97927
   H        3.61332        -6.61910        -5.50136
   H        5.35475        -5.65418        -6.70606
   H        6.68372        -6.75532        -7.08339
   H        6.87950        -5.54512        -5.82048
   H        8.40846        -6.99505        -4.68602
   H        8.20415        -8.20831        -5.94455
   H        8.57902        -8.70860        -4.29283
   H        6.79877        -9.60516        -3.13752
   H        5.74492       -11.07763        -1.85267
   H        4.71785       -12.33152        -0.09903
   H       -0.02395       -12.11564        -2.81318
   H       -1.00615       -16.51605        -3.09162
   H        1.57638       -18.70049        -0.09310
   H        2.02064       -20.90205        -1.14547
   H        2.23193       -21.06301        -3.59839
   H        2.02136       -19.04064        -4.98992
   H        1.57658       -16.85949        -3.94305
   H       -0.28173       -12.78653         0.04904
   H       -0.74223       -10.77009         1.37084
   H        3.29672        -9.49204         0.81165
   H       -0.18422        -9.64315         3.41994
   H       -1.14617        -9.20296         5.41306
   H       -1.90916        -7.28794         7.60610
   H       -0.19458        -7.43852         7.17537
   H       -1.89158        -9.72150         7.80740
   H       -0.77247        -9.05697         8.80049
   H       -3.48458        -7.26026         5.62907
   H       -3.50297        -8.93038         6.22959
   H       -2.94048        -8.26381         3.44752
   H       -4.37171        -8.83460         4.01475
   H       -2.26365        -5.37926         6.51309
   H       -2.62094        -3.14379         5.41933
   H       -0.61388        -1.90651         4.46594
   H        0.55496        -3.37613         2.88149
   H        1.46129        -5.36868         1.41352
   H        2.00675        -7.54164         0.40104
   H       -0.14713        -2.80668         7.13155
   H       -3.09998        -3.21553         7.80645
   H       -4.63331        -2.47909        11.83304
   H       -7.31165        -6.11274        11.73254
   H       -4.29682        -9.17763         9.14847
   H       -2.57969       -10.73929        10.04367
   H       -1.28191       -10.10603        12.04023
   H       -1.71448        -7.95609        13.16421
   H       -3.44400        -6.44100        12.31277
   H       -2.42155        -3.56659        12.54651
   H       -0.86098        -1.73789        13.03161
   H       -0.36502        -1.06225         8.83943
   H       -1.00837         1.00087         9.10340
   H       -1.45179         2.61806         7.51684
   H       -0.00640         3.42951         6.90603
   H       -1.08324         4.27353         8.01182
   H        1.86747         4.66505         7.75649
   H        2.46267         5.27775         9.30276
   H        0.78056         5.53802         8.83010
   H        2.72706         3.67991        10.94831
   H        3.60169         0.98362        13.81920
   H        2.96172         3.87162        13.03293
   H        4.21191         3.27579        14.22671
*
