# ORCA input file
# SCF done       -178.260166811375          0.000796009943
! CAM-B3LYP def2-SVP def2/J RIJCOSX Grid4 TightSCF
%maxcore 5000
%tddft
    Mode sTDDFT
    Ethresh 5.0
    maxcore 5000
end

%pal
  nprocs 6
  end
* xyz 0 1
   C       -1.52322         4.15847         2.04046
   C       -0.76962         4.58271         0.94422
   N       -0.08183         5.83372         1.07806
   O       -0.03383         6.33612         2.18279
   O        0.41706         6.33167         0.08600
   C       -0.70390         3.80304        -0.22014
   C        0.10714         4.18594        -1.42507
   O        0.15155         3.11534        -2.34047
   C       -1.42250         2.61769        -0.24566
   C       -2.18853         2.19258         0.83818
   C       -2.22231         2.97695         1.99776
   C       -2.93481         0.95717         0.76767
   C       -3.21526         0.07931         1.90461
   N       -3.90081        -0.98808         1.60468
   C       -4.13872        -0.90091         0.26871
   C       -3.51871         0.31287        -0.29551
   C       -3.86255         0.42575        -1.69759
   S       -3.55779         1.70358        -2.68824
   C       -4.63335        -0.75866        -1.98128
   C       -4.80377        -1.54143        -0.74318
   N       -5.59279        -2.62938        -0.96161
   C       -5.94368        -2.55415        -2.21299
   C       -5.39172        -1.40664        -2.93538
   C       -5.62117        -1.13819        -4.32792
   C       -6.77732        -1.59385        -4.93587
   C       -7.02070        -1.31294        -6.28991
   C       -8.09677        -1.62265        -7.12405
   C       -9.34949        -2.36177        -6.80370
   C       -9.05162        -3.80805        -6.37148
   N       -8.32625        -4.48594        -7.43091
   C      -10.18515        -1.61265        -5.74785
   N      -10.62793        -0.35151        -6.31308
   C       -7.78807        -1.07023        -8.41889
   C       -8.47929        -1.08312        -9.57531
   C       -7.96442        -0.40169       -10.79423
   C       -6.59811         0.18323       -10.65508
   C       -5.91852         0.18722        -9.49103
   C       -6.47604        -0.41689        -8.34074
   C       -6.02345        -0.56312        -7.04087
   C       -4.84445        -0.12664        -6.39915
   C       -4.65561        -0.40288        -5.08228
   C       -8.94677         0.70251       -11.11550
   C       -9.86544         0.61309       -12.08171
   C      -10.82246         1.62835       -12.39793
   C      -10.87961         3.00847       -11.91196
   N      -11.87198         3.70756       -12.38796
   C      -12.55345         2.86103       -13.21078
   C      -11.91092         1.53757       -13.23301
   C      -12.63387         0.64424       -14.09794
   S      -12.22658        -0.90903       -14.45243
   C      -13.73748         1.43871       -14.59393
   C      -13.64404         2.80844       -14.03895
   N      -14.64731         3.59010       -14.51703
   C      -15.32643         2.82831       -15.32746
   C      -14.82417         1.45711       -15.43555
   C      -15.42493         0.42165       -16.24468
   C      -15.29701        -0.92702       -15.89488
   C      -15.89265        -1.89368       -16.66840
   C      -16.63591        -1.54383       -17.79605
   C      -16.77045        -0.20165       -18.18015
   C      -16.15704         0.75485       -17.38711
   C      -17.55034         0.25344       -19.39648
   O      -18.93524         0.24683       -19.17551
   N      -17.23439        -2.62398       -18.52716
   O      -16.76190        -3.73050       -18.38262
   O      -18.19014        -2.38271       -19.24360
   H       -1.54535         4.78678         2.91807
   H        1.12294         4.46781        -1.11075
   H       -0.34743         5.07663        -1.88371
   H        0.61834         3.40928        -3.12837
   H       -1.36381         2.01337        -1.13549
   H       -2.81722         2.67063         2.84379
   H       -2.87568         0.24198         2.91238
   H       -6.55530        -3.32662        -2.64620
   H       -7.50840        -2.13367        -4.35452
   H       -9.96248        -2.40463        -7.70890
   H      -10.00626        -4.29517        -6.10752
   H       -8.41539        -3.81337        -5.48474
   H       -8.90859        -4.57656        -8.25689
   H       -8.05766        -5.41833        -7.13824
   H       -9.59904        -1.49741        -4.82336
   H      -11.07519        -2.20335        -5.51404
   H       -9.83374         0.26066        -6.47034
   H      -11.26955         0.11897        -5.68557
   H       -9.45304        -1.54384        -9.66151
   H       -7.97912        -1.11502       -11.62917
   H       -6.19021         0.64225       -11.54266
   H       -4.93862         0.63681        -9.42582
   H       -4.10259         0.42219        -6.95927
   H       -3.75837        -0.07971        -4.58046
   H       -8.87760         1.57297       -10.48008
   H       -9.93859        -0.28570       -12.68202
   H      -10.18311         3.45978       -11.22753
   H      -16.20010         3.21106       -15.82477
   H      -14.73997        -1.20583       -15.01571
   H      -15.80646        -2.93923       -16.41311
   H      -16.23807         1.79038       -17.67954
   H      -17.28840        -0.36745       -20.26474
   H      -17.28567         1.29022       -19.61980
   H      -19.22787        -0.67732       -19.19475
*
