# ORCA input file
# SCF done       -197.988048475860          0.000456352064
! CAM-B3LYP def2-SVP def2/J RIJCOSX Grid4 TightSCF
%maxcore 5000
%tddft
    Mode sTDDFT
    Ethresh 5.0
    maxcore 5000
end

%pal
  nprocs 6
  end
* xyz 0 1
   C        4.98124        -4.63940        -1.54476
   C        5.20233        -3.78329        -2.75665
   O        4.40779        -3.00198        -3.22722
   C        6.57507        -4.08899        -3.18039
   C        7.07184        -5.15465        -2.42586
   C        6.02986        -5.64055        -1.52754
   C        5.95552        -6.88618        -0.97479
   C        4.78375        -7.40748        -0.37899
   N        3.83405        -7.94376        -0.02020
   C        6.98279        -7.84935        -1.06966
   N        7.79228        -8.66065        -1.12168
   C        8.38962        -5.59657        -2.59842
   C        9.18348        -4.95706        -3.51496
   C        8.71371        -3.87319        -4.29091
   C        7.37162        -3.42151        -4.13249
   C        6.91355        -2.32724        -4.89267
   C        7.75363        -1.70000        -5.77201
   C        9.07519        -2.14332        -5.93472
   C        9.54497        -3.20784        -5.21406
   C        4.03292        -4.27528        -0.64767
   C        3.89001        -4.74241         0.68802
   N        4.76743        -5.56132         1.24655
   C        4.27772        -5.87653         2.46077
   C        2.97551        -5.23020         2.68388
   C        2.42867        -5.59854         4.00334
   O        1.38830        -5.25084         4.51123
   C        3.47722        -6.49030         4.54008
   C        4.58828        -6.62400         3.56716
   N        5.56622        -7.41974         4.06583
   C        5.14384        -7.77951         5.25131
   C        3.84921        -7.22849         5.61443
   C        2.73755        -4.45247         1.58534
   C        1.62213        -3.58601         1.36220
   C        1.69648        -2.43600         0.65942
   C        0.59321        -1.57370         0.40880
   O       -0.65624        -1.90378         0.83711
   C       -1.50799        -0.96665         0.46613
   C       -0.85556         0.01777        -0.23744
   N       -1.43781         1.17486        -0.79288
   O       -2.60723         1.38175        -0.57634
   O       -0.72119         1.89396        -1.47723
   C        0.52890        -0.36345        -0.28159
   N        1.45985         0.43886        -0.88243
   C        2.76130         0.30512        -1.12898
   N        3.51045        -0.76755        -0.89362
   C        4.71129        -0.49791        -1.42415
   C        4.72688         0.82269        -2.07832
   C        6.06581         1.10524        -2.64466
   O        6.41830         2.07463        -3.27581
   C        6.83272        -0.08107        -2.23832
   C        5.97746        -1.02925        -1.50751
   N        6.69336        -2.09877        -1.09304
   C        7.92581        -1.86619        -1.50263
   C        8.08182        -0.63007        -2.21609
   C        3.50639         1.38016        -1.83772
   C        3.01749         2.70156        -2.09936
   C        2.31077         3.41490        -1.19135
   C        1.86570         4.73742        -1.45685
   C        1.34810         5.67302        -0.62073
   C        1.21964         7.06658        -1.15996
   O        1.26694         7.37028        -2.33002
   C        1.08635         7.93541         0.01696
   C        1.01727         7.14530         1.16506
   C        1.01541         5.73156         0.79144
   C        0.60542         4.72735         1.62750
   C        0.42693         3.37382         1.29768
   N        0.23932         2.25241         1.13112
   C        0.20556         4.91817         2.97116
   N       -0.13373         4.97737         4.06548
   C        0.96093         7.74233         2.43218
   C        0.94994         9.10989         2.51800
   C        0.98926         9.93581         1.37333
   C        1.06608         9.34217         0.07961
   C        1.11779        10.16809        -1.06159
   C        1.08876        11.52885        -0.92526
   C        1.01048        12.11868         0.34662
   C        0.96281        11.34133         1.47155
   H        8.77902        -6.41033        -2.00834
   H       10.20628        -5.27723        -3.65316
   H        5.89562        -1.99591        -4.76058
   H        7.40406        -0.85580        -6.34672
   H        9.72083        -1.63578        -6.63586
   H       10.56145        -3.55177        -5.33989
   H        3.35768        -3.49933        -0.98165
   H        5.74083        -8.43050         5.86631
   H        3.33756        -7.39963         6.54074
   H        0.70155        -3.86826         1.85726
   H        2.63223        -2.07736         0.25374
   H       -2.54344        -1.06871         0.72848
   H        1.02569         1.30787        -1.22417
   H        8.70600        -2.57735        -1.29322
   H        8.99768        -0.25625        -2.62874
   H        3.31250         3.15332        -3.03745
   H        2.13864         2.99825        -0.21066
   H        2.01529         5.09029        -2.47347
   H        0.94269         7.14484         3.32830
   H        0.91064         9.58272         3.48858
   H        1.17900         9.70429        -2.03331
   H        1.12632        12.16152        -1.79918
   H        0.98919        13.19507         0.43025
   H        0.90288        11.79259         2.45126
*
