# ORCA input file
# SCF done       -200.484215794945          0.000711772801
! CAM-B3LYP def2-SVP def2/J RIJCOSX Grid4 TightSCF
%maxcore 5000
%tddft
    Mode sTDDFT
    Ethresh 5.0
    maxcore 5000
end

%pal
  nprocs 6
  end
* xyz 0 1
   C        1.16020        -6.54010        -1.61413
   C        0.02510        -7.49749        -1.45659
   O       -1.13052        -7.20090        -1.24546
   C        0.61622        -8.83153        -1.65970
   C        2.00119        -8.71054        -1.77942
   C        2.38139        -7.31488        -1.59109
   C        3.62015        -6.87253        -1.21324
   C        3.88560        -5.55395        -0.79255
   N        4.14710        -4.50258        -0.41210
   C        4.76272        -7.69241        -1.11322
   N        5.73198        -8.30008        -1.01782
   C        2.79827        -9.83636        -2.02181
   C        2.19221       -11.06099        -2.12708
   C        0.79593       -11.22175        -1.98752
   C       -0.02616       -10.08189        -1.74982
   C       -1.41961       -10.24725        -1.61465
   C       -1.97621       -11.49304        -1.70712
   C       -1.17114       -12.61956        -1.94029
   C        0.18334       -12.48811        -2.07870
   C        0.89550        -5.22763        -1.82559
   C        1.74920        -4.19332        -2.31913
   C        2.88644        -4.42643        -3.13741
   N        3.36564        -5.53874        -3.65664
   O        4.43249        -5.18466        -4.37832
   N        4.66502        -3.87450        -4.34513
   C        3.72808        -3.34200        -3.58642
   C        3.45986        -1.98808        -3.23140
   C        2.30865        -1.80996        -2.48053
   C        1.48440        -2.85712        -2.06172
   C        4.34753        -0.90627        -3.60709
   C        5.66325        -1.17067        -3.92025
   C        6.55027        -0.11829        -4.20886
   C        7.90501        -0.13258        -4.51605
   C        8.75036        -1.34892        -4.67199
   C        9.26573        -1.48892        -6.11425
   N        8.13890        -1.54249        -7.03042
   C        9.91243        -1.39158        -3.66447
   N       10.56105        -2.69076        -3.71921
   C        8.30825         1.24554        -4.67240
   C        9.50099         1.81301        -4.93238
   C        9.67643         3.29092        -4.98619
   C        8.41826         4.07926        -4.78677
   C        7.22818         3.49932        -4.54546
   C        7.12136         2.09211        -4.45723
   C        6.06252         1.25235        -4.18194
   C        4.69777         1.49239        -3.90057
   C        3.87661         0.44977        -3.62005
   C       10.27444         3.71028        -6.30250
   C       11.35035         4.49753        -6.39500
   C       11.90799         5.00160        -7.62272
   C       11.39306         4.68465        -8.90970
   N       10.41343         3.89205        -9.29898
   O       10.37970         3.96137       -10.62705
   N       11.30041         4.77460       -11.13146
   C       11.96895         5.25531       -10.10276
   C       13.03684         6.18814       -10.04221
   C       13.53312         6.43411        -8.77534
   C       12.99614         5.85498        -7.61920
   C       13.56304         6.76808       -11.24486
   C       14.11975         7.99062       -11.40012
   C       14.96093         8.28410       -12.60054
   O       15.02345         7.61270       -13.60486
   C       15.71122         9.50408       -12.25401
   C       15.26084         9.99636       -11.02773
   C       14.16446         9.16349       -10.54597
   C       13.21786         9.54342        -9.63314
   C       12.03903         8.81779        -9.36014
   N       11.04240         8.30485        -9.11358
   C       13.26193        10.74819        -8.90040
   N       13.25117        11.70167        -8.26155
   C       15.83986        11.14027       -10.46187
   C       16.85009        11.77054       -11.13973
   C       17.31896        11.30757       -12.38900
   C       16.74296        10.14077       -12.97139
   C       17.21709         9.68024       -14.21653
   C       18.21983        10.35160       -14.86047
   C       18.78956        11.50226       -14.29220
   C       18.35062        11.97032       -13.08398
   H        3.86533        -9.74007        -2.13942
   H        2.79032       -11.93969        -2.32155
   H       -2.02782        -9.37452        -1.43642
   H       -3.04338       -11.61937        -1.60098
   H       -1.63184       -13.59394        -2.01017
   H        0.80490       -13.35358        -2.25815
   H       -0.13302        -4.93379        -1.63649
   H        2.03993        -0.81547        -2.16062
   H        0.62076        -2.61561        -1.45892
   H        6.01754        -2.18848        -3.91653
   H        8.11937        -2.22209        -4.47180
   H        9.91682        -2.37669        -6.14859
   H        9.86399        -0.61592        -6.38542
   H        7.54735        -2.33862        -6.81485
   H        8.46515        -1.64786        -7.98447
   H        9.51363        -1.14250        -2.66574
   H       10.66311        -0.64104        -3.92165
   H        9.91168        -3.41906        -3.43917
   H       11.34949        -2.72096        -3.08247
   H       10.39291         1.22928        -5.10879
   H       10.38779         3.56537        -4.19103
   H        8.51994         5.15102        -4.85946
   H        6.34268         4.10166        -4.40308
   H        4.31994         2.50419        -3.91462
   H        2.83111         0.63608        -3.42990
   H        9.75062         3.38556        -7.18889
   H       11.85994         4.82403        -5.49588
   H       14.38618         7.08916        -8.66775
   H       13.44789         6.11064        -6.67151
   H       13.54886         6.13242       -12.12405
   H       15.50704        11.51284        -9.50676
   H       17.31024        12.65136       -10.71571
   H       16.77239         8.79534       -14.64361
   H       18.58157         9.99938       -15.81480
   H       19.58019        12.01646       -14.81825
   H       18.78692        12.85577       -12.64477
*
