# ORCA input file
# SCF done       -174.350779861781          0.000643393467
! CAM-B3LYP def2-SVP def2/J RIJCOSX Grid4 TightSCF
%maxcore 5000
%tddft
    Mode sTDDFT
    Ethresh 5.0
    maxcore 5000
end

%pal
  nprocs 6
  end
* xyz 0 1
   C       -1.76558         6.97793        -6.70568
   C       -2.89828         6.84650        -5.94581
   C       -4.21396         6.47408        -6.33012
   C       -5.18858         6.41391        -5.38521
   C       -4.91367         6.71841        -4.02545
   C       -3.66475         7.08095        -3.60875
   C       -2.61263         7.15690        -4.54373
   C       -1.26011         7.48788        -4.42852
   C       -0.67206         7.38515        -5.83410
   O        0.48407         7.60918        -6.11744
   C       -0.42029         7.85352        -3.38629
   C       -0.74710         7.98467        -2.05261
   C        0.14632         8.34925        -1.04330
   C        1.57641         8.67508        -1.13722
   N        2.13754         8.95564         0.00054
   C        1.14740         8.85060         0.94129
   C       -0.11483         8.48680         0.32034
   C       -1.13846         8.34504         1.30984
   S       -2.70220         7.88512         1.03685
   C       -0.47417         8.63568         2.56182
   C        0.93706         8.94090         2.30112
   N        1.60892         9.16055         3.46513
   C        0.73403         8.96883         4.41180
   C       -0.60641         8.62235         3.93589
   C       -1.74549         8.34590         4.76597
   C       -3.02468         8.54179         4.28161
   C       -4.13078         8.22702         5.08574
   C       -5.49729         8.31568         4.82536
   C       -6.11618         8.81475         3.56786
   C       -7.16695         7.84658         2.99022
   N       -7.16220         7.94497         1.54505
   C       -6.71233        10.22035         3.78981
   N       -5.63999        11.16344         4.03189
   C       -6.17571         7.85745         6.01566
   C       -7.48366         7.73996         6.31936
   C       -7.94060         7.23872         7.64331
   C       -6.84201         6.84568         8.57778
   C       -5.53794         6.97828         8.26813
   C       -5.15281         7.47818         7.00326
   C       -3.91642         7.71007         6.42714
   C       -2.59778         7.54085         6.90400
   C       -1.55048         7.85409         6.09668
   C       -8.77843         8.30262         8.31384
   C      -10.03208         8.09850         8.72673
   C      -10.85049         9.06596         9.39203
   C      -10.53431        10.45532         9.73423
   N      -11.50629        11.09583        10.31920
   C      -12.52842        10.19562        10.42295
   C      -12.13205         8.90454         9.86042
   C      -13.24201         7.97558         9.93382
   S      -13.30848         6.47773         9.22938
   C      -14.27425         8.69928        10.59491
   C      -13.83432        10.07779        10.83548
   N      -14.86506        10.84049        11.31197
   C      -15.90469        10.06562        11.32735
   C      -15.63424         8.68004        10.91342
   C      -16.57602         7.65341        10.88162
   C      -16.38031         6.26848        10.92681
   C      -15.24706         5.52991        11.31146
   C      -15.31272         4.16283        11.30593
   C      -16.50319         3.48960        10.95352
   C      -17.64710         4.17169        10.64639
   C      -17.62702         5.58244        10.62702
   C      -18.63405         6.52284        10.42587
   C      -18.04393         7.86969        10.70084
   O      -18.65059         8.91430        10.77035
   C      -19.99695         6.42865        10.03923
   C      -20.61314         5.38131         9.47019
   H       -1.66546         6.81666        -7.76179
   H       -4.41361         6.24631        -7.36618
   H       -6.19533         6.13171        -5.65631
   H       -5.71999         6.65771        -3.31024
   H       -3.49788         7.30557        -2.56819
   H        0.60313         8.04710        -3.68851
   H       -1.75885         7.79247        -1.72778
   H        2.15492         8.69825        -2.04384
   H        1.01345         9.11030         5.44113
   H       -3.17490         8.95383         3.29744
   H       -5.33253         8.91147         2.81212
   H       -8.15418         8.05685         3.43675
   H       -6.89062         6.82030         3.24819
   H       -7.43972         8.87208         1.24333
   H       -7.79512         7.27114         1.13139
   H       -7.45273        10.17177         4.60821
   H       -7.23040        10.54052         2.88163
   H       -5.14645        10.93099         4.88703
   H       -5.99503        12.10869         4.11305
   H       -8.26405         8.02181         5.62752
   H       -8.59195         6.36908         7.47285
   H       -7.15644         6.46664         9.53804
   H       -4.77171         6.69364         8.97445
   H       -2.43382         7.15789         7.90047
   H       -0.53938         7.70806         6.44475
   H       -8.27787         9.24667         8.47211
   H      -10.50680         7.13810         8.56442
   H       -9.59851        10.95050         9.54497
   H      -16.86499        10.42581        11.65132
   H      -14.36405         6.04491        11.65221
   H      -14.45115         3.57993        11.59440
   H      -16.51020         2.40965        10.97149
   H      -18.56605         3.64063        10.45801
   H      -20.55468         7.34516        10.19986
   H      -20.09496         4.47403         9.21531
   H      -21.65741         5.42633         9.21465
*
