# ORCA input file
# SCF done       -170.225678320142          0.000410910856
! CAM-B3LYP def2-SVP def2/J RIJCOSX Grid4 TightSCF
%maxcore 5000
%tddft
    Mode sTDDFT
    Ethresh 5.0
    maxcore 5000
end

%pal
  nprocs 6
  end
* xyz 0 1
   C        8.25003         7.42180         5.72334
   S        6.72935         7.83438         5.07047
   C        7.11619         7.03170         3.56746
   C        8.37970         6.46206         3.62510
   C        9.01846         6.68548         4.86456
   C       10.37325         6.14348         5.20446
   C       11.09924         5.63988         3.95773
   C       10.16687         4.78656         3.08761
   O        9.67588         3.65765         3.76898
   C        9.02802         5.66111         2.53882
   C        6.17990         7.05188         2.49742
   C        6.49402         6.86264         1.07516
   N        5.46801         6.94899         0.28037
   C        4.40042         7.19675         1.08929
   C        4.82060         7.30258         2.49181
   C        3.66538         7.53117         3.32227
   S        3.62194         7.57906         4.97121
   C        2.55486         7.60048         2.40488
   C        3.04044         7.36541         1.03772
   N        2.00906         7.36045         0.14732
   C        0.93618         7.54107         0.86317
   C        1.17892         7.69848         2.29715
   C        0.17255         7.94927         3.28825
   C        0.52333         8.55470         4.47990
   C       -0.44736         8.78228         5.46399
   C       -0.32245         9.32384         6.74278
   C        0.97260         9.72587         7.35419
   C        0.90861        10.97990         8.23996
   N        2.19568        11.64550         8.18438
   C        1.57740         8.52645         8.11779
   N        2.96596         8.79813         8.45369
   C       -1.64172         9.30137         7.32656
   C       -2.09779         9.66952         8.54021
   C       -3.53185         9.56014         8.90568
   C       -4.41969         9.01804         7.82857
   C       -3.94552         8.61577         6.63379
   C       -2.57042         8.73802         6.33110
   C       -1.82837         8.41345         5.20947
   C       -2.16564         7.81945         3.97230
   C       -1.19435         7.59316         3.04873
   C       -3.76200         8.68099        10.10919
   C       -2.93948         7.69695        10.49073
   C       -3.17776         6.83935        11.61050
   C       -2.21332         5.82333        12.04429
   N       -2.57987         5.13253        13.08237
   C       -3.80175         5.63143        13.43022
   C       -4.20785         6.71700        12.51747
   C       -5.53196         7.16907        12.87850
   S       -6.51813         8.18787        12.03517
   C       -5.87222         6.41794        14.05606
   C       -4.80579         5.43593        14.33743
   N       -5.16129         4.61563        15.36683
   C       -6.35033         5.00217        15.72164
   C       -6.86759         6.15169        14.96990
   C       -8.10939         6.78124        15.26112
   S       -9.46654         5.80059        15.76272
   C      -10.45407         7.19360        15.90599
   C       -9.78641         8.35039        15.63040
   C       -8.43686         8.12334        15.26512
   C       -7.48987         9.24164        15.00359
   C       -8.03438        10.56650        15.53528
   C       -9.48627        10.78528        15.08726
   O       -9.62190        10.81746        13.68871
   C      -10.38754         9.71804        15.72953
   H        8.50182         7.73020         6.71915
   H       10.26170         5.32344         5.92231
   H       10.96732         6.91566         5.69803
   H       11.96520         5.04691         4.25384
   H       11.44886         6.48413         3.36161
   H       10.73331         4.37342         2.24575
   H        9.10118         3.95900         4.48202
   H        8.29299         5.01672         2.05083
   H        9.44588         6.33467         1.78487
   H        7.47554         6.71607         0.66540
   H       -0.02438         7.60857         0.38275
   H        1.54183         8.86323         4.64641
   H        1.66848         9.96593         6.54360
   H        0.61735        10.69593         9.26539
   H        0.15352        11.66942         7.84686
   H        2.90949        10.99307         8.49846
   H        2.20785        12.45710         8.79218
   H        1.45566         7.62435         7.49646
   H        1.02336         8.37326         9.04957
   H        3.51702         8.81681         7.59967
   H        3.33582         8.05065         9.03206
   H       -1.44136        10.05690         9.30538
   H       -3.88187        10.56870         9.17626
   H       -5.46613         8.93364         8.07675
   H       -4.61205         8.20990         5.88673
   H       -3.19021         7.54028         3.77506
   H       -1.44409         7.11736         2.11285
   H       -4.69112         8.84621        10.63535
   H       -2.01824         7.51450         9.95019
   H       -1.26983         5.63213        11.56184
   H       -6.87923         4.51300        16.52156
   H      -11.48126         7.08205        16.19283
   H       -7.31478         9.32653        13.92221
   H       -6.51608         9.02062        15.44894
   H       -7.41361        11.38468        15.16829
   H       -8.00456        10.57479        16.62633
   H       -9.82284        11.77516        15.41580
   H       -9.32166         9.97454        13.32768
   H      -11.36569         9.73428        15.24320
   H      -10.53939         9.96725        16.78342
*
