# ORCA input file
# SCF done       -207.712652691656          0.000379226283
! CAM-B3LYP def2-SVP def2/J RIJCOSX Grid4 TightSCF
%maxcore 5000
%tddft
    Mode sTDDFT
    Ethresh 5.0
    maxcore 5000
end

%pal
  nprocs 6
  end
* xyz 0 1
   C       13.84244        -6.71168        -1.16818
   C       15.16921        -7.07239        -1.37781
   O       15.86146        -7.42427        -0.25962
   C       17.18644        -7.90207        -0.37141
   C       17.25283        -9.34941        -0.85099
   C       15.67631        -7.04612        -2.67177
   C       14.89114        -6.63063        -3.74121
   C       15.45851        -6.67903        -5.13186
   C       15.41310        -8.10891        -5.67271
   C       13.57540        -6.23571        -3.51853
   O       12.80546        -5.80056        -4.58064
   C       12.48443        -4.41759        -4.57857
   C       13.67543        -3.52861        -4.92219
   C       13.02813        -6.30319        -2.21944
   C       11.62758        -5.99540        -2.02581
   C       11.05761        -5.64350        -0.85525
   C        9.68133        -5.32422        -0.69421
   C        8.63719        -5.25451        -1.72368
   N        7.47037        -4.87956        -1.28419
   C        7.63364        -4.67633         0.05760
   C        9.01313        -4.96594         0.45675
   C        9.17965        -4.73211         1.86662
   S       10.58312        -4.91277         2.71369
   C        7.88518        -4.29019         2.32006
   C        6.95840        -4.25566         1.17451
   N        5.73461        -3.79048         1.55481
   C        5.85246        -3.50736         2.81975
   C        7.17239        -3.78448         3.39048
   C        7.51718        -3.58804         4.77072
   C        8.51728        -4.34193         5.35600
   C        8.81052        -4.19383         6.72099
   C        9.72697        -4.84011         7.55001
   C       10.71837        -5.89740         7.21009
   C       10.03041        -7.15490         6.65494
   N        9.00393        -7.59306         7.58773
   C       11.78500        -5.34093         6.24212
   N       12.94396        -6.21674         6.21761
   C        9.57777        -4.25969         8.86222
   C       10.19801        -4.53204        10.02638
   C        9.89145        -3.76722        11.26727
   C        8.82326        -2.73764        11.12036
   C        8.18729        -2.50105         9.95716
   C        8.53158        -3.23307         8.79622
   C        8.06861        -3.20704         7.49468
   C        7.06829        -2.43235         6.86622
   C        6.79667        -2.62662         5.55062
   C       11.21419        -3.20559        11.73406
   C       11.59210        -1.93495        11.56366
   C       12.86086        -1.41680        11.97811
   C       13.26295        -0.02851        11.74544
   N       14.44785         0.27856        12.18695
   C       14.93155        -0.87010        12.74091
   C       13.94741        -1.96840        12.62127
   C       14.48251        -3.15795        13.24052
   S       13.78440        -4.63536        13.43203
   C       15.78554        -2.76874        13.71211
   C       16.03296        -1.34799        13.39337
   N       17.25360        -0.95909        13.86140
   C       17.74476        -2.00903        14.45642
   C       16.88549        -3.19531        14.40618
   C       17.19366        -4.47350        15.01736
   C       17.58931        -4.47649        16.37097
   O       17.65533        -3.25037        16.95879
   C       18.12704        -3.12293        18.28465
   C       19.64200        -3.27444        18.38686
   C       17.80182        -5.68433        17.01451
   C       17.65117        -6.89357        16.34743
   C       17.90615        -8.18233        17.07678
   C       19.39920        -8.39202        17.33525
   C       17.27986        -6.89106        15.00438
   O       17.11259        -8.09375        14.34596
   C       18.16920        -8.45307        13.46995
   C       17.75992        -9.71563        12.73060
   C       17.04679        -5.68469        14.33139
   C       16.68066        -5.73593        12.91388
   C       17.18721        -4.95901        11.96784
   H       13.45070        -6.78675        -0.16716
   H       17.58499        -7.83114         0.64466
   H       17.78205        -7.24694        -1.01934
   H       16.69101        -9.98700        -0.17322
   H       18.28729        -9.68120        -0.87329
   H       16.82682        -9.45013        -1.84620
   H       16.69401        -7.33766        -2.87975
   H       16.49146        -6.32350        -5.12384
   H       14.87072        -6.03794        -5.78727
   H       15.98914        -8.77957        -5.03851
   H       15.82308        -8.14601        -6.67931
   H       14.38513        -8.46168        -5.70184
   H       12.08003        -4.11823        -3.60235
   H       11.70120        -4.31253        -5.33407
   H       13.36943        -2.48636        -4.89283
   H       14.05021        -3.75572        -5.91700
   H       14.47702        -3.68058        -4.20187
   H       11.01558        -6.06924        -2.91524
   H       11.65850        -5.55741         0.04001
   H        8.76976        -5.48370        -2.76648
   H        5.00215        -3.14257         3.36943
   H        9.05158        -5.06058         4.75778
   H       11.24853        -6.18816         8.12251
   H       10.79997        -7.92202         6.46725
   H        9.53848        -6.93001         5.70721
   H        9.42541        -7.86130         8.47121
   H        8.51542        -8.40195         7.22024
   H       12.11334        -4.36932         6.62260
   H       11.33491        -5.18253         5.25373
   H       12.73611        -7.06284         5.69824
   H       13.71755        -5.75773         5.75072
   H       10.96925        -5.28530        10.10750
   H        9.57461        -4.48717        12.03823
   H        8.58048        -2.18225        12.01401
   H        7.41068        -1.75241         9.89469
   H        6.52866        -1.69232         7.43904
   H        6.04218        -2.02971         5.06139
   H       11.88777        -3.91416        12.19532
   H       10.92715        -1.22505        11.08716
   H       12.65477         0.70863        11.24890
   H       18.72147        -1.97742        14.90535
   H       17.61571        -3.83085        18.94814
   H       17.83512        -2.10977        18.57457
   H       19.95826        -4.26024        18.05411
   H       19.95539        -3.13155        19.41724
   H       20.13048        -2.52885        17.76443
   H       18.07547        -5.71390        18.05748
   H       17.51625        -9.00860        16.48219
   H       17.37636        -8.16726        18.03207
   H       19.95084        -8.41084        16.39770
   H       19.56305        -9.33544        17.85062
   H       19.80175        -7.58939        17.94942
   H       19.08726        -8.63103        14.05077
   H       18.36695        -7.63891        12.75898
   H       17.55587       -10.51205        13.44116
   H       18.55680       -10.02768        12.06146
   H       16.85906        -9.52962        12.15256
   H       15.97482        -6.51726        12.66167
   H       17.92352        -4.20057        12.18098
   H       16.88609        -5.05483        10.93843
*
