# ORCA input file
# SCF done       -142.260001307187          0.000901476216
! CAM-B3LYP def2-SVP def2/J RIJCOSX Grid4 TightSCF
%maxcore 5000
%tddft
    Mode sTDDFT
    Ethresh 5.0
    maxcore 5000
end

%pal
  nprocs 6
  end
* xyz 0 1
   C       -4.69884        -0.73420         1.65094
   S       -5.71369        -2.01371         1.07031
   C       -4.33724        -3.03341         0.83468
   O       -4.43557        -4.27787         0.36342
   C       -3.14943        -2.40927         1.18912
   C       -3.39755        -1.08011         1.65718
   C       -1.89102        -3.06557         1.07333
   C       -0.68597        -2.53477         1.40222
   C        0.51430        -3.27046         1.24697
   N        0.52519        -4.50977         0.76557
   C        1.81149        -4.89253         0.75303
   C        2.69631        -3.83177         1.25966
   C        4.09512        -4.27709         1.23522
   O        5.09093        -3.66626         1.57857
   C        3.99448        -5.64128         0.69518
   C        2.58779        -5.97918         0.41421
   N        2.48634        -7.23469        -0.08157
   C        3.71940        -7.68653        -0.12345
   C        4.70894        -6.74557         0.34615
   C        1.87524        -2.77801         1.58543
   C        2.18564        -1.50170         2.12254
   C        3.45615        -1.11844         2.40749
   C        3.83246         0.13516         2.94748
   N        5.15943         0.41490         3.19196
   C        5.25413         1.66756         3.70646
   C        6.13465         2.62739         4.17986
   C        5.34864         3.73474         4.55089
   N        4.01743         3.44742         4.30446
   C        3.93316         2.19660         3.78961
   C        3.04752         1.23987         3.31467
   C        5.80266         4.95086         5.09115
   C        5.02015         6.00716         5.46429
   C        5.57025         7.18866         6.00083
   N        6.88595         7.34613         6.16021
   C        7.04906         8.56635         6.68666
   C        5.76020         9.24961         6.88586
   C        5.97204        10.58333         7.46398
   O        5.14199        11.42153         7.76132
   C        7.43578        10.65323         7.59446
   C        8.05543         9.40883         7.11194
   N        9.40237         9.46569         7.22917
   C        9.64997        10.65004         7.74538
   C        8.47109        11.44071         7.99803
   C        4.79639         8.37518         6.44831
   C        3.38064         8.49682         6.40705
   C        2.71772         9.59420         6.84359
   C        1.30485         9.74572         6.82503
   S        0.60327        11.22036         7.46198
   C       -0.99199        10.65337         7.11198
   O       -2.08676        11.38322         7.38636
   C       -0.99823         9.39757         6.53295
   C        0.31649         8.90392         6.38102
   C       -2.22932         8.73229         6.15766
   C       -2.31972         7.54431         5.57102
   H       -5.15385         0.18959         1.94607
   H       -5.34937        -4.52379         0.17569
   H       -2.61848        -0.41671         1.98285
   H       -1.90762        -4.07604         0.68921
   H       -0.61274        -1.53096         1.79320
   H        3.92047        -8.67999        -0.48544
   H        5.76581        -6.92059         0.39208
   H        1.36653        -0.82159         2.30622
   H        4.26232        -1.81474         2.21302
   H        5.91122        -0.22847         3.00814
   H        7.20105         2.57526         4.26417
   H        3.25382         4.07606         4.47927
   H        1.98154         1.30792         3.23705
   H        6.86895         5.05960         5.22739
   H        3.94514         5.96353         5.36057
   H       10.66372        10.95284         7.94351
   H        8.45711        12.42882         8.41430
   H        2.82243         7.66110         6.00881
   H        3.28495        10.42486         7.24301
   H       -1.84726        12.22459         7.79263
   H        0.52680         7.94270         5.95120
   H       -3.12429         9.29248         6.39249
   H       -1.45374         6.95760         5.31540
   H       -3.27432         7.11676         5.31932
*
