# ORCA input file
# SCF done       -192.232845285591          0.000523503100
! CAM-B3LYP def2-SVP def2/J RIJCOSX Grid4 TightSCF
%maxcore 5000
%tddft
    Mode sTDDFT
    Ethresh 5.0
    maxcore 5000
end

%pal
  nprocs 6
  end
* xyz 0 1
   C        2.64702        -1.59527        -9.90303
   C        2.89774        -0.50318       -10.68542
   C        3.02445        -0.55034       -12.09108
   N        3.13885        -0.53376       -13.23231
   C        3.00986         0.81654       -10.19412
   N        3.07799         1.91203        -9.86047
   C        2.41351        -2.95480       -10.36006
   C        1.99538        -3.74703        -9.25791
   C        1.69965        -5.08506        -9.37915
   C        1.82444        -5.66901       -10.64209
   C        2.24470        -4.87089       -11.73679
   C        2.54126        -3.51895       -11.61635
   S        2.33687        -5.80376       -13.19497
   C        1.82350        -7.22213       -12.34965
   C        1.59110        -7.01654       -11.03449
   C        1.96441        -2.92893        -8.03953
   O        1.63934        -3.27875        -6.92795
   C        2.47788        -1.58409        -8.45268
   C        2.90058        -0.63795        -7.58908
   C        2.70647        -0.66890        -6.16308
   N        3.71433        -0.47169        -5.34254
   C        3.19812        -0.56247        -4.09271
   C        1.74283        -0.78891        -4.14115
   C        1.18797        -0.82897        -2.77725
   O        0.02662        -0.88001        -2.43564
   C        2.39776        -0.77633        -1.93776
   C        3.59834        -0.57052        -2.78428
   N        4.71830        -0.53162        -2.01431
   C        4.30021        -0.72713        -0.79197
   C        2.85787        -0.89987        -0.67122
   C        1.41564        -0.88821        -5.46931
   C        0.16383        -1.07156        -6.12760
   C       -0.92774        -1.69632        -5.62921
   C       -1.00628        -2.48860        -4.44889
   S       -2.49756        -2.53596        -3.55904
   C       -0.08307        -3.30098        -3.81426
   S        1.55883        -3.74343        -4.10300
   C        1.49720        -4.64073        -2.59950
   N        0.39648        -4.62728        -1.95081
   C       -0.54861        -3.91733        -2.61359
   C       -1.88081        -3.61352        -2.32708
   C       -2.74353        -3.92902        -1.26283
   C       -2.70325        -4.97056        -0.37480
   C       -1.92188        -6.13685        -0.44275
   N       -1.13487        -6.46753        -1.46681
   C       -0.52932        -7.60430        -1.12093
   C       -0.98226        -8.07790         0.20715
   C       -0.29154        -9.32831         0.56664
   O       -0.42540        -9.99847         1.56937
   C        0.61263        -9.53753        -0.57398
   C        0.44213        -8.47074        -1.57340
   N        1.30194        -8.64022        -2.60557
   C        1.97454        -9.73421        -2.31489
   C        1.59857       -10.34069        -1.06446
   C       -1.88363        -7.15526         0.64857
   C       -2.71092        -7.10014         1.82478
   C       -2.38433        -7.45981         3.08056
   C       -1.10442        -7.90534         3.54808
   C        0.11882        -7.52384         3.12535
   C        0.54497        -6.49498         2.19405
   C        0.05629        -5.22339         2.07083
   C        0.68920        -4.21953         1.30943
   N        1.19823        -3.35488         0.75162
   C       -1.08036        -4.75785         2.76063
   N       -2.00604        -4.33641         3.29216
   C        1.72716        -7.01536         1.52869
   C        2.18417        -8.16498         2.22125
   C        1.29344        -8.41969         3.37363
   O        1.44134        -9.19190         4.28466
   C        3.24199        -8.91312         1.76496
   C        3.85801        -8.51240         0.57428
   C        3.39095        -7.35912        -0.10331
   C        2.32972        -6.59428         0.36084
   S        4.28639        -7.08191        -1.56302
   C        5.25609        -8.48168        -1.26478
   C        4.93311        -9.13051        -0.12517
   H        1.38603        -5.66034        -8.52193
   H        2.86522        -2.95471       -12.47511
   H        1.72698        -8.13864       -12.89868
   H        1.26753        -7.78165       -10.35253
   H        3.49154         0.19915        -7.94160
   H        5.00073        -0.74770         0.02492
   H        2.32247        -1.10402         0.23421
   H        0.08411        -0.61944        -7.10901
   H       -1.86326        -1.58950        -6.16426
   H        2.37657        -5.16668        -2.28232
   H       -3.56945        -3.23562        -1.14757
   H       -3.39508        -4.91926         0.45551
   H        2.73239       -10.09744        -2.98766
   H        2.02502       -11.23031        -0.64505
   H       -3.72307        -6.75617         1.64871
   H       -3.16989        -7.46338         3.82520
   H       -1.11873        -8.68913         4.29798
   H        3.57062        -9.79267         2.29586
   H        1.96046        -5.74477        -0.18870
   H        6.02098        -8.73441        -1.97316
   H        5.42763       -10.01968         0.22184
*
