# ORCA input file
# SCF done       -201.039525935968          0.000484876714
! CAM-B3LYP def2-SVP def2/J RIJCOSX Grid4 TightSCF
%maxcore 5000
%tddft
    Mode sTDDFT
    Ethresh 5.0
    maxcore 5000
end

%pal
  nprocs 6
  end
* xyz 0 1
   C      -20.30438         4.67903        -0.44290
   C      -21.09284         4.85379         0.67211
   C      -22.45872         5.19692         0.62905
   N      -23.57321         5.47263         0.67571
   C      -20.68193         4.72223         2.01173
   N      -20.42991         4.63789         3.13156
   C      -20.77190         4.82633        -1.81897
   C      -19.68538         4.56374        -2.68883
   C      -19.79710         4.62308        -4.05608
   C      -21.04376         4.95908        -4.59451
   C      -22.12288         5.21926        -3.71949
   C      -22.00871         5.15840        -2.33411
   S      -23.56510         5.61500        -4.60114
   C      -22.72642         5.43234        -6.10318
   C      -21.42751         5.09099        -5.95906
   C      -18.49355         4.24073        -1.88947
   O      -17.39212         3.96035        -2.35759
   C      -18.90279         4.32650        -0.48888
   C      -18.12378         4.12606         0.63877
   C      -16.78203         3.80101         0.77705
   N      -15.86329         3.57755        -0.23445
   C      -14.64636         3.30106         0.25115
   C      -14.70810         3.32853         1.64175
   C      -16.04883         3.63898         1.97320
   N      -16.16001         3.68913         3.31825
   C      -14.93019         3.42470         3.86194
   C      -13.98920         3.19439         2.87580
   C      -12.59102         2.90611         2.99926
   C      -11.90215         2.91017         4.15615
   C      -10.48714         2.68213         4.31852
   C       -9.90423         2.96709         5.53146
   C       -8.51115         2.83576         5.70869
   C       -7.69686         3.11790         6.79330
   C       -8.15456         3.59272         8.13464
   C       -7.60873         2.72296         9.27713
   N       -7.74266         1.31396         8.94310
   C       -7.80499         5.07513         8.34967
   N       -8.64192         5.88871         7.48504
   C       -6.33921         2.87060         6.37128
   C       -5.15328         3.08064         6.97181
   C       -3.85988         2.72519         6.31942
   C       -3.98919         2.19101         4.92868
   C       -5.17734         2.03457         4.31816
   C       -6.37956         2.37173         4.98588
   C       -7.69949         2.37010         4.59097
   C       -8.33199         2.03336         3.36986
   C       -9.67194         2.18944         3.24264
   C       -3.19291         1.70829         7.21314
   C       -2.07871         1.94760         7.91058
   C       -1.43389         1.02770         8.79483
   N       -0.28036         1.35744         9.46945
   C        0.15762         0.35631        10.27277
   C       -0.73051        -0.68918        10.13583
   C       -1.72389        -0.26682         9.20561
   N       -2.60450        -1.29881         9.02073
   C       -2.20465        -2.34749         9.77991
   C       -1.05866        -2.04121        10.50686
   C       -0.39688        -2.90809        11.40319
   C        0.62161        -2.54072        12.23585
   C        1.23019        -3.46830        13.09341
   C        2.17589        -3.30519        14.07478
   C        2.96895        -2.19582        14.54098
   C        3.36162        -1.06810        13.85856
   C        4.15441        -0.04123        14.41119
   N        4.77534         0.84983        14.78653
   C        3.13225        -0.77903        12.50312
   N        3.04246        -0.45048        11.40440
   C        3.46197        -2.54339        15.87588
   C        3.15204        -3.90039        16.14031
   C        2.37962        -4.44127        15.00749
   O        1.95877        -5.57175        14.87368
   C        3.52000        -4.53246        17.30238
   C        4.21813        -3.78787        18.25874
   C        4.50667        -2.42942        17.99489
   C        4.14105        -1.79163        16.81462
   S        5.36086        -1.69967        19.31927
   C        5.32903        -3.19240        20.19378
   C        4.70792        -4.19303        19.53292
   H      -18.94910         4.41765        -4.69105
   H      -22.86332         5.36687        -1.71285
   H      -23.26769         5.59483        -7.01492
   H      -20.75137         4.93469        -6.78023
   H      -18.62707         4.24625         1.58779
   H      -16.16345         3.64486        -1.21601
   H      -13.81860         3.10421        -0.40242
   H      -16.99796         3.88179         3.84324
   H      -14.80677         3.41348         4.92677
   H      -12.08961         2.70666         2.06276
   H      -12.43152         3.15245         5.06877
   H      -10.51254         3.33766         6.34462
   H       -9.24717         3.52523         8.15552
   H       -8.13721         3.00382        10.20537
   H       -6.54508         2.91901         9.43466
   H       -8.70514         1.10503         8.69838
   H       -7.49259         0.73897         9.74049
   H       -6.72530         5.22299         8.18057
   H       -8.02728         5.35595         9.38434
   H       -8.50321         5.61470         6.51713
   H       -8.39903         6.86939         7.57145
   H       -5.07185         3.48849         7.96910
   H       -3.22165         3.62064         6.29858
   H       -3.06365         1.92943         4.43789
   H       -5.23089         1.65451         3.30763
   H       -7.73643         1.66177         2.54813
   H      -10.15302         1.92911         2.31269
   H       -3.70244         0.75908         7.27687
   H       -1.59513         2.91368         7.82223
   H        0.18873         2.24262         9.36498
   H        1.06986         0.44417        10.82726
   H       -3.41742        -1.28902         8.42751
   H       -2.75997        -3.26669         9.78436
   H       -0.74611        -3.93358        11.42699
   H        0.93046        -1.50954        12.24669
   H        0.84875        -4.48512        13.03941
   H        3.27507        -5.56999        17.46911
   H        4.38104        -0.75194        16.66836
   H        5.78490        -3.22654        21.16420
   H        4.59178        -5.18925        19.92007
*
