# ORCA input file
# SCF done       -162.044800757721          0.001721828874
! CAM-B3LYP def2-SVP def2/J RIJCOSX Grid4 TightSCF
%maxcore 5000
%tddft
    Mode sTDDFT
    Ethresh 5.0
    maxcore 5000
end

%pal
  nprocs 6
  end
* xyz 0 1
   C        4.78635        -3.93333        10.63911
   S        5.78194        -4.40117        12.00873
   C        4.35008        -4.54888        13.07400
   O        4.39422        -4.83113        14.23328
   N        3.22096        -4.30112        12.34070
   C        3.35104        -3.99803        10.99791
   O        2.41159        -3.86637        10.25594
   C        1.91925        -4.39902        12.96615
   C        5.27518        -3.61379         9.43585
   C        4.45113        -3.11856         8.32596
   N        3.69549        -2.04927         8.55712
   C        2.96546        -1.61225         7.54569
   C        2.97587        -2.22019         6.30152
   C        3.82947        -3.31864         6.14749
   N        4.57286        -3.75101         7.17194
   C        3.94749        -4.02014         4.88935
   C        4.74856        -5.08798         4.73663
   N        4.86651        -5.75234         3.54872
   C        5.63235        -6.83242         3.28685
   S        6.57793        -7.60020         4.51367
   C        7.11549        -8.77363         3.34321
   N        8.00184        -9.76017         3.78474
   O        8.37745       -10.58895         2.97608
   O        8.33179        -9.71071         4.95823
   C        6.59731        -8.58039         2.09342
   C        5.73959        -7.46368         2.02665
   C        5.05164        -6.97698         0.87968
   C        5.01212        -7.52121        -0.36677
   C        4.28214        -6.99134        -1.45341
   C        3.44431        -5.90168        -1.49613
   C        2.74099        -5.45338        -2.64511
   C        1.95566        -4.35617        -2.45100
   C        1.98718        -3.86021        -1.13028
   S        3.04567        -4.84058        -0.15128
   C        1.33629        -2.77612        -0.57091
   C        0.44879        -1.86108        -1.17325
   C       -0.01600        -0.89850        -0.32395
   C        0.48355        -1.00187         0.99560
   S        1.56282        -2.37013         1.11790
   C        0.24278        -0.21614         2.10690
   C       -0.61412         0.88009         2.11022
   C       -0.85785         1.67716         3.21128
   C       -1.75123         2.80714         3.26403
   C       -2.54504         3.28878         2.24819
   C       -3.39905         4.40280         2.37074
   N       -4.11290         5.30200         2.40614
   C       -2.62892         2.75279         0.94868
   N       -2.75791         2.37800        -0.13044
   C       -1.68011         3.36707         4.61180
   C       -0.76612         2.59935         5.37397
   C       -0.22538         1.51037         4.53421
   O        0.57535         0.66368         4.88631
   C       -0.47628         2.88122         6.68581
   C       -1.12118         3.97331         7.27768
   C       -2.03687         4.73000         6.51078
   C       -2.32886         4.44542         5.18182
   S       -2.72474         6.03069         7.43622
   C       -1.78303         5.54745         8.82114
   C       -0.99444         4.46809         8.60473
  Br       -1.93147         6.51303        10.42274
   H        1.79985        -5.38125        13.42279
   H        1.17422        -4.24962        12.18673
   H        1.81761        -3.63502        13.73686
   H        6.33328        -3.71151         9.23743
   H        2.35592        -0.74084         7.74332
   H        2.36511        -1.85350         5.49336
   H        3.35410        -3.64732         4.06534
   H        5.33489        -5.45724         5.56520
   H        4.31035        -5.38790         2.78203
   H        6.84039        -9.22054         1.26570
   H        4.50714        -6.06022         1.03349
   H        5.56641        -8.42664        -0.56717
   H        4.37912        -7.52197        -2.39241
   H        2.83909        -5.96315        -3.58759
   H        1.35925        -3.89477        -3.21735
   H        0.17611        -1.93338        -2.21102
   H       -0.69989        -0.12239        -0.61764
   H        0.74769        -0.47172         3.02689
   H       -1.12311         1.12142         1.18870
   H        0.22632         2.27959         7.24061
   H       -3.03297         5.05465         4.64111
   H       -0.34877         4.03799         9.34840
*
