# ORCA input file
# SCF done       -180.099200663515          0.000554732064
! CAM-B3LYP def2-SVP def2/J RIJCOSX Grid4 TightSCF
%maxcore 5000
%tddft
    Mode sTDDFT
    Ethresh 5.0
    maxcore 5000
end

%pal
  nprocs 6
  end
* xyz 0 1
   C       -4.34681        -2.85498        -2.39804
   C       -5.10429        -3.94238        -2.05927
   C       -4.66554        -5.27726        -2.19690
   N       -4.35601        -6.37870        -2.28194
   C       -6.44337        -3.89218        -1.61041
   N       -7.54350        -3.93826        -1.28870
   C       -3.03467        -2.89319        -3.02662
   C       -2.70332        -1.58607        -3.46020
   C       -1.52771        -1.30073        -4.11278
   C       -0.63308        -2.35170        -4.33749
   C       -0.96963        -3.65347        -3.89117
   C       -2.16110        -3.94387        -3.23927
   S        0.28027        -4.80011        -4.26252
   C        1.22500        -3.53621        -5.00453
   C        0.63637        -2.31626        -4.97560
  Br        2.89913        -3.94448        -5.74312
   C       -3.78596        -0.64853        -3.09908
   O       -3.84152         0.52156        -3.40394
   C       -4.74981        -1.45773        -2.29821
   C       -5.73705        -1.01009        -1.47382
   C       -6.20279         0.31114        -1.28061
   O       -5.81862         1.36351        -2.04344
   C       -7.11513         0.77430        -0.34411
   C       -7.95185         0.38208         0.80299
   O       -8.09111        -0.67702         1.35011
   N       -8.57726         1.57151         1.16616
   C       -8.23174         2.68985         0.40624
   O       -8.65910         3.80047         0.57179
   C       -7.27327         2.15716        -0.56938
   C       -6.44688         2.48543        -1.63450
   C       -6.19201         3.72291        -2.28511
   C       -5.27894         3.83206        -3.27673
   C       -5.00912         5.06182        -3.95035
   C       -4.09162         5.24978        -4.91565
   C       -3.18179         4.19724        -5.45593
   C       -3.91564         6.61400        -5.53054
   N       -4.27083         6.58121        -6.93183
   C       -3.75837         7.42621        -7.84616
   C       -4.23263         7.58193        -9.10596
   C       -3.67297         8.47623       -10.04612
   S       -2.28906         9.48748        -9.72508
   C       -2.36562        10.30335       -11.28004
   C       -3.40765         9.74931       -12.02340
   C       -4.12111         8.74028       -11.32712
   S       -5.39147         8.12263       -12.33239
   C       -4.84342         9.22819       -13.57230
   N       -3.84474         9.97423       -13.29076
   C       -1.42723        11.29253       -11.58941
   C       -1.43975        12.20796       -12.61007
   C       -0.16083        12.83322       -13.02617
   O        0.89910        12.78508       -12.43972
   C       -0.44698        13.47602       -14.32503
   C        0.40857        14.10723       -15.17974
   C       -0.09064        14.62801       -16.39548
   C       -1.47379        14.47709       -16.70271
   C       -1.96270        14.99126       -17.91927
   C       -1.10448        15.62504       -18.77390
   C        0.25762        15.78615       -18.48894
   C        0.74930        15.29094       -17.31299
   F       -1.57132        16.11821       -19.93755
   C       -2.33934        13.82581       -15.79196
   C       -1.83425        13.33828       -14.61826
   C       -2.47994        12.67129       -13.48890
   C       -3.82591        12.71215       -13.21748
   C       -4.38084        12.35079       -11.97677
   N       -4.86984        12.10306       -10.96687
   C       -4.79748        13.19961       -14.11080
   N       -5.63900        13.56008       -14.80488
   H       -1.30268        -0.29690        -4.43753
   H       -2.37203        -4.94885        -2.91419
   H        1.07972        -1.42769        -5.38632
   H       -6.24463        -1.72301        -0.83575
   H       -9.23055         1.62340         1.93516
   H       -6.76375         4.56825        -1.93130
   H       -4.72973         2.94540        -3.55953
   H       -5.60580         5.90808        -3.63161
   H       -3.56865         3.19601        -5.29654
   H       -2.21202         4.26701        -4.96089
   H       -3.02001         4.35434        -6.52093
   H       -2.86702         6.91996        -5.45825
   H       -4.52611         7.35215        -4.99214
   H       -5.14498         6.12749        -7.15671
   H       -2.88819         7.98632        -7.52961
   H       -5.10243         7.03092        -9.43678
   H       -5.34673         9.25611       -14.51917
   H       -0.52758        11.30054       -10.98133
   H        1.45485        14.20980       -14.93322
   H       -3.00698        14.88875       -18.17006
   H        0.88701        16.29584       -19.20115
   H        1.79560        15.40248       -17.07079
   H       -3.38111        13.72158       -16.05076
*
