# ORCA input file
# SCF done       -166.014303024440          0.000672844549
! CAM-B3LYP def2-SVP def2/J RIJCOSX Grid4 TightSCF
%maxcore 5000
%tddft
    Mode sTDDFT
    Ethresh 5.0
    maxcore 5000
end

%pal
  nprocs 6
  end
* xyz 0 1
   C       -7.82601         6.68486        -9.67471
   C       -6.90296         5.82270       -10.22229
   C       -6.60570         5.75370       -11.59747
   N       -6.31414         5.64482       -12.70356
   C       -6.11524         4.89674        -9.51234
   N       -5.43298         4.11761        -9.01135
   C       -8.61199         7.65641       -10.42716
   C       -9.42058         8.38583        -9.52097
   C      -10.27639         9.38079        -9.92281
   C      -10.34050         9.67288       -11.29000
   C       -9.53156         8.93924       -12.18859
   C       -8.66480         7.93258       -11.78095
   S       -9.76752         9.45890       -13.83070
   C      -10.93278        10.63944       -13.29282
   C      -11.13667        10.64569       -11.95442
  Br      -11.77199        11.75146       -14.54973
   C       -9.17348         7.89302        -8.15234
   O       -9.70549         8.30436        -7.13557
   C       -8.18330         6.82110        -8.27900
   C       -7.68344         6.05117        -7.25515
   C       -7.91895         6.09225        -5.87721
   S       -8.95848         7.21521        -5.04157
   C       -8.55565         6.51283        -3.50769
   C       -7.68303         5.43300        -3.64074
   C       -7.31706         5.20588        -4.96622
   C       -6.39305         4.10086        -5.37101
   C       -5.68007         3.49818        -4.16441
   C       -6.67581         3.21964        -3.04121
   N       -5.99894         2.54885        -1.94145
   C       -7.22125         4.55324        -2.52275
   C       -9.14933         7.12020        -2.35872
   C       -8.73608         7.00486        -1.08011
   C       -9.30749         7.64065         0.07934
   C      -10.02628         8.77001         0.17305
   C      -10.37132         9.68834        -0.95559
   C      -10.49072         9.24471         1.52650
   N       -9.84834        10.49855         1.84890
   C      -10.29489        11.36051         2.78867
   C       -9.59584        12.44613         3.20917
   C      -10.06127        13.35586         4.17703
   C       -9.36932        14.46387         4.58505
   C       -9.74418        15.40446         5.57588
   C       -8.85087        16.41308         5.76392
   C       -7.71507        16.34266         4.92272
   S       -7.81254        14.92819         3.89544
   C       -6.65955        17.22333         4.84020
   C       -6.44820        18.41133         5.57912
   C       -5.32629        19.08934         5.22704
   C       -4.58286        18.49685         4.16626
   S       -5.35191        16.98998         3.69278
   C       -3.42721        18.98829         3.63930
   C       -2.69351        18.50092         2.51843
   S       -0.94410        18.53665         2.63256
   C       -0.79364        17.85583         1.06483
   C       -1.99834        17.64327         0.46810
   C       -3.09364        18.02237         1.28749
   C       -4.50781        18.00761         0.78227
   C       -5.24519        19.25977         1.16395
   C       -6.50982        19.29272         1.53843
   C       -4.51937        17.86368        -0.74828
   C       -3.61168        16.71941        -1.18157
   C       -2.15844        17.09962        -0.91844
   H      -10.87722         9.91873        -9.20633
   H       -8.07076         7.40343       -12.50685
   H      -11.82005        11.30764       -11.45450
   H       -6.98795         5.27663        -7.54724
   H       -5.65088         4.46086        -6.08669
   H       -6.97572         3.32363        -5.87742
   H       -4.91978         4.18497        -3.79037
   H       -5.18058         2.57475        -4.46129
   H       -7.51467         2.62654        -3.45398
   H       -6.65485         2.33236        -1.19858
   H       -5.58708         1.67723        -2.25567
   H       -6.41437         5.03984        -1.96685
   H       -8.04837         4.37293        -1.83131
   H      -10.00100         7.74180        -2.59009
   H       -7.89179         6.36981        -0.85802
   H       -9.07586         7.12917         1.00751
   H       -9.58235         9.70526        -1.70386
   H      -10.52505        10.69787        -0.57882
   H      -11.29474         9.37046        -1.44043
   H      -10.27500         8.48417         2.29122
   H      -11.57364         9.41205         1.51063
   H       -8.88514        10.59197         1.56105
   H      -11.28439        11.15557         3.17459
   H       -8.61616        12.63330         2.78881
   H      -11.02175        13.16740         4.63878
   H      -10.66709        15.30086         6.11986
   H       -8.97667        17.20935         6.47571
   H       -7.13334        18.72948         6.34482
   H       -5.00737        20.01503         5.67302
   H       -2.97042        19.81304         4.17382
   H        0.18238        17.65466         0.66913
   H       -5.03476        17.14259         1.20364
   H       -4.67627        20.17641         1.07159
   H       -7.09665        18.39338         1.63406
   H       -7.01218        20.21593         1.77302
   H       -4.17541        18.79433        -1.20627
   H       -5.54546        17.68745        -1.07519
   H       -3.86844        15.82038        -0.61725
   H       -3.75058        16.50512        -2.24288
   H       -1.84727        17.86581        -1.63643
   H       -1.50045        16.23848        -1.05753
*
