# ORCA input file
# SCF done       -165.125027865560          0.000548785765
! CAM-B3LYP def2-SVP def2/J RIJCOSX Grid4 TightSCF
%maxcore 5000
%tddft
    Mode sTDDFT
    Ethresh 5.0
    maxcore 5000
end

%pal
  nprocs 6
  end
* xyz 0 1
   C      -15.76881       -11.71364        -3.40430
   C      -14.46793       -11.56838        -2.97635
   C      -13.50863       -12.59986        -3.00391
   N      -12.69496       -13.40912        -2.94039
   C      -13.89945       -10.40775        -2.41823
   N      -13.33569        -9.51135        -1.96903
   C      -16.29746       -12.89852        -4.07845
   C      -17.67359       -12.69504        -4.34188
   C      -18.45105       -13.62776        -4.98142
   C      -17.84108       -14.82228        -5.38158
   C      -16.46548       -15.01355        -5.11979
   C      -15.67734       -14.06717        -4.47478
   S      -15.91249       -16.55535        -5.70262
   C      -17.51755       -16.91581        -6.27978
   C      -18.42150       -15.93481        -6.05145
  Br      -17.84905       -18.55471        -7.13133
   C      -18.07421       -11.36562        -3.83093
   O      -19.18941       -10.88205        -3.88088
   C      -16.85192       -10.77778        -3.25578
   C      -16.79354        -9.55270        -2.61932
   C      -17.86515        -8.69769        -2.39151
   C      -17.70926        -7.51001        -1.69446
   C      -18.69614        -6.57147        -1.32528
   C      -18.21897        -5.50854        -0.60436
   C      -16.83206        -5.55827        -0.38379
   S      -16.14654        -6.99280        -1.11158
   C      -15.97387        -4.69064         0.28036
   C      -16.20256        -3.49330         0.98441
   C      -15.06273        -2.93798         1.49861
   C      -13.87999        -3.66149         1.21707
   S      -14.27714        -5.08727         0.28761
   C      -12.58566        -3.34406         1.57680
   C      -11.44277        -4.06745         1.21991
   S      -11.52835        -5.48732         0.21628
   C       -9.80035        -5.68722         0.23211
   C       -9.18994        -4.67966         0.98783
   C      -10.10327        -3.78989         1.54676
   C       -9.68409        -2.63809         2.40437
   C       -8.24738        -2.81484         2.88650
   C       -7.33111        -3.16239         1.71400
   N       -5.95370        -3.22464         2.17651
   C       -7.71279        -4.53994         1.16265
   C       -9.33957        -6.78802        -0.51621
   C       -8.09158        -7.31889        -0.63644
   C       -7.84536        -8.42711        -1.47578
   S       -6.24938        -9.14152        -1.59015
   C       -6.74004       -10.34397        -2.76146
   C       -8.08847       -10.16768        -3.02678
   C       -8.70110        -9.11958        -2.31999
   S      -10.38344        -9.02340        -2.76844
   C      -10.14452       -10.36732        -3.90537
   S      -11.28705       -10.94960        -4.89501
   O       -8.89505       -10.83834        -3.88075
   C       -5.84406       -11.29791        -3.29526
   C       -6.12759       -12.28466        -4.20268
   C       -4.90078       -13.00189        -4.44078
   C       -4.29068       -14.00698        -5.09756
   C       -2.86803       -13.95874        -4.63982
   N       -2.64487       -13.00624        -3.78225
   C       -3.86057       -12.36918        -3.60784
   C       -4.40560       -11.35301        -2.91826
   C       -1.86235       -14.87612        -5.10760
   C       -0.59497       -14.83671        -4.69784
   H      -19.49713       -13.44321        -5.16983
   H      -14.63077       -14.25688        -4.30547
   H      -19.45477       -15.99037        -6.34195
   H      -15.83066        -9.23225        -2.23817
   H      -18.84913        -8.97022        -2.74347
   H      -19.72844        -6.70810        -1.59477
   H      -18.82829        -4.70206        -0.23622
   H      -17.18620        -3.07394         1.09885
   H      -15.03965        -2.02406         2.06632
   H      -12.44335        -2.45108         2.17031
   H      -10.35417        -2.54694         3.26198
   H       -9.76712        -1.71294         1.82335
   H       -8.19108        -3.61980         3.62005
   H       -7.90413        -1.89706         3.36707
   H       -7.48316        -2.40753         0.91795
   H       -5.33026        -3.45812         1.41144
   H       -5.66145        -2.33018         2.55392
   H       -7.34870        -5.29567         1.86506
   H       -7.21291        -4.70554         0.20527
   H      -10.13269        -7.28635        -1.06116
   H       -7.24623        -6.93047        -0.09167
   H       -7.08042       -12.48974        -4.65091
   H       -4.67778       -14.71833        -5.80214
   H       -3.95120       -10.67707        -2.21827
   H       -2.19462       -15.61613        -5.82408
   H       -0.28048       -14.09479        -3.98424
   H        0.14365       -15.53167        -5.05858
*
