# ORCA input file
# SCF done       -190.468532945199          0.000633113180
! CAM-B3LYP def2-SVP def2/J RIJCOSX Grid4 TightSCF
%maxcore 5000
%tddft
    Mode sTDDFT
    Ethresh 5.0
    maxcore 5000
end

%pal
  nprocs 6
  end
* xyz 0 1
   C       -5.54641       -11.96810         2.93328
   C       -6.34506       -11.93016         4.08771
   C       -7.24198       -12.95913         4.30726
   C       -7.35961       -14.02128         3.40372
   C       -6.54428       -14.04256         2.25292
   C       -5.63822       -13.00212         2.03312
   N       -6.65960       -15.08438         1.37852
   C       -7.51735       -16.16384         1.49264
   O       -7.52616       -17.03102         0.64729
   C       -8.35850       -16.11726         2.69604
   C       -8.27296       -15.09669         3.59070
   C       -9.27046       -17.17610         2.90166
   N      -10.01895       -18.02170         3.09648
   C       -6.21610       -10.81736         5.04015
   C       -6.23715       -11.07527         6.42058
   C       -6.10192       -10.07869         7.36166
   C       -5.94592        -8.77825         6.89773
   C       -5.93325        -8.51995         5.50952
   C       -6.06197        -9.51768         4.56681
   O       -5.76947        -7.18552         5.34498
   C       -5.68249        -6.69229         6.61423
   N       -5.78197        -7.58612         7.54933
   C       -5.47722        -5.27688         6.81847
   C       -5.42231        -4.41013         5.71224
   C       -5.20806        -3.05934         5.85921
   C       -5.04163        -2.57479         7.15277
   C       -5.10359        -3.45500         8.26060
   C       -5.32169        -4.80659         8.12266
   O       -4.89985        -2.71458         9.37699
   C       -4.72173        -1.44717         8.91596
   N       -4.79810        -1.31587         7.62399
   C       -4.45089        -0.39160         9.83523
   C       -4.22676         0.91658         9.52012
   C       -3.94832         1.71939        10.65163
   C       -3.69870         3.10709        10.68809
   C       -3.60190         3.88251         9.46832
   C       -2.97130         3.54247         8.30573
   C       -3.07424         4.54628         7.31877
   C       -3.78136         5.64808         7.70494
   S       -4.33074         5.45944         9.33525
   C       -4.09091         6.87498         6.92926
  Cl       -2.35958         4.37705         5.76102
   C       -3.53507         3.67400        11.94527
   C       -3.58401         2.92827        13.15047
   C       -3.82661         1.54056        13.11538
   C       -3.99265         0.97080        11.85503
   S       -4.33998        -0.70899        11.54525
   C       -3.92635         0.73569        14.31574
   C       -3.48732        -0.54299        14.50885
   C       -3.81126        -1.04567        15.78752
   C       -4.50782        -0.17814        16.57734
   S       -4.76364         1.31105        15.73376
   C       -5.00168        -0.37119        17.96394
  Cl       -3.36063        -2.62839        16.29307
   C       -3.31034         3.73897        14.27777
   C       -3.07473         5.04769        13.96851
   S       -3.18140         5.35271        12.24815
   C       -2.76019         6.10900        14.86210
   C       -2.51841         7.42996        14.54847
   C       -2.22642         8.19093        15.68399
   C       -2.24829         7.43806        16.86404
   S       -2.62978         5.79835        16.58604
   C       -1.93132         8.29906        17.95543
   C       -1.71183         9.58783        17.45808
   C       -1.89038         9.56964        16.01692
   C       -1.77071        10.61780        15.15240
   C       -1.97174        10.47493        13.76324
   N       -2.13601        10.36689        12.63353
   C       -1.43842        11.91768        15.58859
   N       -1.16538        12.97511        15.93851
   C       -1.38740        10.50788        18.47366
   C       -1.36789         9.90907        19.69638
   S       -1.74202         8.21777        19.64933
   H       -4.83048       -11.17842         2.76396
   H       -7.88269       -12.94531         5.17609
   H       -5.01064       -13.02167         1.15429
   H       -6.06807       -15.09133         0.55505
   H       -8.90700       -15.09313         4.46693
   H       -6.33766       -12.09867         6.74975
   H       -6.10990       -10.28863         8.41830
   H       -6.06565        -9.29366         3.51218
   H       -5.55152        -4.83078         4.72694
   H       -5.16364        -2.39240         5.01441
   H       -5.36666        -5.48360         8.95849
   H       -4.28612         1.27534         8.51052
   H       -2.41674         2.63345         8.16425
   H       -3.65438         6.80108         5.93641
   H       -3.68909         7.75532         7.42955
   H       -5.16819         7.00684         6.83376
   H       -2.92190        -1.10297        13.78793
   H       -4.92079        -1.41984        18.23842
   H       -6.04038        -0.05743        18.04891
   H       -4.41373         0.21960        18.66669
   H       -3.26973         3.37175        15.28681
   H       -2.55605         7.80224        13.54050
   H       -1.17928        11.55027        18.31612
   H       -1.15331        10.35881        20.64500
*
