# ORCA input file
# SCF done       -168.414553157891          0.000387200425
! CAM-B3LYP def2-SVP def2/J RIJCOSX Grid4 TightSCF
%maxcore 5000
%tddft
    Mode sTDDFT
    Ethresh 5.0
    maxcore 5000
end

%pal
  nprocs 6
  end
* xyz 0 1
   C        1.63334         5.27655         0.34257
   C        0.87030         6.41070         0.31838
   F       -0.11082         6.56803         1.22367
   C        1.07014         7.43125        -0.62198
   C        2.06412         7.29108        -1.54979
   C        2.88333         6.14317        -1.56925
   C        2.66194         5.11499        -0.60599
   C        3.46754         3.95306        -0.60687
   C        4.46480         3.83000        -1.53639
   C        4.69435         4.86871        -2.48487
   C        3.92366         5.99611        -2.51314
   C        5.85437         4.51795        -3.32252
   O        6.30420         5.11478        -4.27024
   C        6.41832         3.27488        -2.70296
   C        5.43022         2.76244        -1.77028
   C        5.29558         1.46622        -1.35610
   C        6.15921         0.42393        -1.74699
   N        6.83567        -0.45294        -2.04914
   C        4.23811         1.01027        -0.53951
   N        3.40020         0.59010         0.12162
   C        7.68801         2.91665        -2.99767
   C        8.57146         2.01603        -2.30882
   C        8.56930         1.78511        -0.94406
   F        7.70275         2.44118        -0.15377
   C        9.47021         0.91467        -0.30691
   F        9.35922         0.82093         1.02859
   C       10.44898         0.20621        -0.97683
   C       10.51079         0.44358        -2.37220
   C        9.59203         1.33854        -3.02449
   N        9.80645         1.40859        -4.33526
   S       11.03358         0.44468        -4.71103
   N       11.35942        -0.10532        -3.24133
   C       11.36331        -0.70903        -0.29357
   C       12.72265        -0.73095        -0.65607
   C       13.63971        -1.53043        -0.01398
   C       13.17315        -2.34460         1.01325
   C       11.79964        -2.34376         1.34885
   C       10.87959        -1.53388         0.71981
   O       11.62689        -3.23077         2.35564
   C       12.87413        -3.71577         2.60300
   N       13.80704        -3.22694         1.84245
   C       13.06340        -4.68779         3.65471
   C       14.38103        -5.05130         4.00556
   C       14.63980        -5.95318         5.00661
   C       13.54204        -6.51196         5.66357
   C       12.21963        -6.15186         5.29321
   C       11.95561        -5.23439         4.29733
   O       11.37585        -6.85121         6.07277
   C       12.17865        -7.59325         6.87751
   N       13.45724        -7.41867         6.67116
   C       11.58323        -8.48275         7.82466
   N       10.27737        -8.66585         7.83557
   C       10.04781        -9.56724         8.81615
   C       11.30598        -9.96752         9.47594
   C       11.03223       -10.95248        10.53712
   O       11.80794       -11.49525        11.29118
   C        9.56614       -11.11890        10.45460
   C        9.01014       -10.24954         9.39111
   N        7.66265       -10.40169         9.30682
   C        7.36036       -11.28407        10.22190
   C        8.50322       -11.77649        10.97634
   C       12.30610        -9.27849         8.84447
   C       13.72687        -9.25445         9.05310
   C       14.33563        -9.96444        10.00450
   H        1.44974         4.51010         1.07916
   H        0.43684         8.30362        -0.59174
   H        2.23745         8.06403        -2.28323
   H        3.28866         3.19579         0.13987
   H        4.11029         6.77002        -3.24249
   H        8.12882         3.40946        -3.85867
   H       13.04763        -0.08410        -1.45486
   H       14.68215        -1.53091        -0.28531
   H        9.83748        -1.55820         0.99130
   H       15.18350        -4.58601         3.45602
   H       15.64313        -6.22980         5.28442
   H       10.95005        -4.95892         4.02595
   H        6.33851       -11.59008        10.36613
   H        8.46240       -12.50183        11.76459
   H       14.28102        -8.61469         8.38142
   H       13.78699       -10.60505        10.67550
   H       15.40356        -9.92104        10.13382
*
