# ORCA input file
# SCF done       -223.278083067122          0.000651039820
! CAM-B3LYP def2-SVP def2/J RIJCOSX Grid4 TightSCF
%maxcore 5000
%tddft
    Mode sTDDFT
    Ethresh 5.0
    maxcore 5000
end

%pal
  nprocs 6
  end
* xyz 0 1
   C        4.88701         4.98279         3.49331
   C        3.94006         5.44920         4.36223
   F        4.31569         6.21577         5.40178
   C        2.57671         5.15875         4.21562
   C        2.17577         4.38017         3.16593
   C        3.10999         3.87192         2.24006
   C        4.49187         4.18068         2.40522
   C        5.44741         3.68974         1.48461
   C        5.03228         2.91442         0.43622
   C        3.65223         2.59293         0.28837
   C        2.70790         3.05889         1.15715
   C        3.48290         1.71040        -0.87956
   O        2.45444         1.27924        -1.34764
   C        4.86754         1.40162        -1.34386
   C        5.77362         2.30159        -0.66543
   C        7.01066         2.70543        -1.09654
   C        7.61000         2.27058        -2.29496
   N        8.13003         1.97117        -3.27336
   C        7.79494         3.67095        -0.43187
   N        8.47356         4.44375         0.07751
   C        5.04413         0.34582        -2.18903
   C        6.20508        -0.40031        -2.49242
   C        7.39385        -0.48505        -1.79935
   C        8.24837        -1.42152        -2.45423
   C        7.47612        -1.91529        -3.59455
   C        6.27002        -1.32903        -3.62519
   F        7.94676        -2.81675        -4.46218
   C        9.53956        -1.75958        -2.12254
   C       10.39809        -2.69779        -2.75489
   C       11.62214        -2.70005        -2.11383
   C       11.56720        -1.72034        -1.02004
   C       10.33845        -1.18683        -1.02935
   F        9.87175        -0.26023        -0.18635
   C       12.71409        -3.52544        -2.45009
   C       13.94287        -3.47450        -1.85894
   C       15.02057        -4.32696        -2.17660
   C       15.05192        -5.42787        -3.02853
   C       16.30062        -6.03030        -3.06312
   C       17.25159        -5.38479        -2.23935
   S       16.58559        -4.04689        -1.41649
   C       18.47999        -6.06641        -2.34914
   C       18.31400        -7.15877        -3.23280
   C       16.93976        -7.16654        -3.70878
   C       16.36782        -8.05169        -4.57380
   C       17.08786        -9.12670        -5.13770
   N       17.67099       -10.00019        -5.59655
   C       15.01385        -7.95040        -4.95865
   N       13.91304        -7.86438        -5.26692
   C       19.47388        -7.89974        -3.40183
   C       20.53834        -7.38513        -2.66699
   S       20.07250        -5.95746        -1.74858
   C       21.86091        -7.86959        -2.61002
   C       22.36316        -9.00887        -3.20788
   C       23.75063        -9.10436        -2.92052
   C       24.05766        -7.93044        -2.09274
   C       22.94925        -7.20274        -1.89201
   F       25.27274        -7.67216        -1.60397
   C       24.63971       -10.07757        -3.32164
   C       26.04637       -10.12384        -3.11477
   C       26.55023       -11.26986        -3.70005
   C       25.43071       -12.00966        -4.29278
   C       24.31819       -11.29423        -4.07502
   F       23.07599       -11.61766        -4.44904
   C       27.89032       -11.70629        -3.78405
   C       28.97064       -11.01003        -3.32474
   C       30.28837       -11.48443        -3.47154
   C       31.45069       -10.81166        -3.21913
   C       32.71788       -11.57300        -3.04549
   O       32.90517       -12.73575        -3.32354
   C       33.65729       -10.62483        -2.41803
   C       34.92262       -10.84817        -1.95724
   C       35.63849        -9.78414        -1.36458
   C       35.02035        -8.50460        -1.25309
   C       35.73697        -7.44903        -0.65678
   C       37.00706        -7.67254        -0.20266
   C       37.63260        -8.92269        -0.30416
   C       36.95044        -9.95896        -0.87847
   F       37.69390        -6.66508         0.36531
   C       33.70872        -8.30130        -1.74258
   C       33.03997        -9.34365        -2.32474
   C       31.71965        -9.41821        -2.94891
   C       30.99463        -8.34026        -3.38920
   C       29.87774        -8.42135        -4.24773
   N       29.00091        -8.41346        -4.98837
   C       31.35108        -7.00009        -3.13156
   N       31.58278        -5.89308        -2.93577
   H        5.92750         5.22971         3.63531
   H        1.87539         5.55485         4.93277
   H        1.13128         4.14231         3.03188
   H        6.48693         3.93127         1.63978
   H        1.66651         2.80837         1.02128
   H        4.12393        -0.01790        -2.63927
   H        7.63367         0.01230        -0.88031
   H        5.48812        -1.47200        -4.34496
   H       10.13137        -3.30481        -3.59755
   H       12.36264        -1.48987        -0.33973
   H       12.53723        -4.23842        -3.24361
   H       14.13484        -2.73136        -1.09796
   H       14.19448        -5.76628        -3.57979
   H       19.56883        -8.76765        -4.02760
   H       21.81123        -9.70936        -3.80155
   H       22.85086        -6.29597        -1.32721
   H       26.60988        -9.36518        -2.60995
   H       25.51716       -12.94602        -4.80846
   H       28.06296       -12.64514        -4.29589
   H       28.81289       -10.06695        -2.82383
   H       30.41481       -12.52448        -3.75604
   H       35.37323       -11.82542        -2.04496
   H       35.28807        -6.47233        -0.56524
   H       38.63655        -9.03939         0.07205
   H       37.41122       -10.93116        -0.96810
   H       33.26391        -7.32462        -1.63691
*
