# ORCA input file
# SCF done       -195.822164495992          0.000674126061
! CAM-B3LYP def2-SVP def2/J RIJCOSX Grid4 TightSCF
%maxcore 5000
%tddft
    Mode sTDDFT
    Ethresh 5.0
    maxcore 5000
end

%pal
  nprocs 6
  end
* xyz 0 1
   C       -0.00511        -2.26183        -3.12818
   C       -0.85106        -1.55426        -3.92688
   C       -0.99183        -0.22796        -3.47528
   C       -0.23232         0.02874        -2.32767
   S        0.64288        -1.34178        -1.81045
   C       -0.43494         1.38506        -1.94225
   C       -1.32367         1.97628        -2.84960
   C       -1.70181         0.98160        -3.84704
   C       -2.54245         1.16130        -4.90615
   C       -3.17094         2.39798        -5.16251
   N       -3.68237         3.40286        -5.37128
   C       -2.83695         0.12500        -5.81695
   N       -3.07912        -0.71371        -6.56039
   C       -1.59139         3.31439        -2.55614
   C       -0.90895         3.74205        -1.43312
   S        0.07807         2.46973        -0.72831
   C       -0.93481         5.03137        -0.84149
   C       -0.22565         5.46838         0.26131
   C       -0.49824         6.80377         0.56077
   C       -1.42525         7.38389        -0.32065
   S       -1.95829         6.29008        -1.51939
   C       -1.63590         8.73167         0.06685
   C       -0.83773         9.00512         1.19018
   C       -0.09860         7.80183         1.54019
   C        0.77790         7.64192         2.57257
   C        1.08340         8.69060         3.46557
   N        1.33182         9.54162         4.19252
   C        1.43324         6.41655         2.81640
   N        1.96668         5.42149         3.01636
   C       -0.97770        10.31400         1.65102
   C       -1.88033        11.03540         0.89148
   S       -2.56292        10.08112        -0.41894
   C       -2.28639        12.38090         1.07621
   C       -3.25324        13.07489         0.37214
   C       -3.40945        14.37704         0.84652
   C       -2.54710        14.67824         1.91425
   S       -1.54866        13.35874         2.33834
   C       -2.79621        16.00858         2.33556
   C       -3.82335        16.54564         1.54124
   C       -4.23604        15.54220         0.57245
   C       -5.19445        15.66760        -0.38946
   C       -5.93677        16.85575        -0.55658
   N       -6.54126        17.82047        -0.69230
   C       -5.50318        14.61834        -1.28077
   N       -5.75359        13.76593        -2.00548
   C       -4.16000        17.85137         1.89770
   C       -3.39170        18.31409         2.94995
   S       -2.23211        17.11520         3.50810
   C       -3.47054        19.57682         3.58976
   C       -2.63795        20.07947         4.57246
   C       -3.03414        21.34942         4.99166
   C       -4.18228        21.81195         4.32723
   S       -4.76393        20.69424         3.17456
   C       -4.51948        23.08946         4.84248
   C       -3.58011        23.43791         5.82676
   C       -2.60989        22.36116         5.94722
   C       -1.52851        22.31207         6.77662
   C       -1.21453        23.36473         7.66206
   N       -0.95968        24.21961         8.38231
   C       -0.65116        21.20732         6.79976
   N        0.06354        20.31106         6.81691
   C       -3.84181        24.67661         6.41361
   C       -4.97535        25.26760         5.88838
   S       -5.72486        24.28258         4.63965
   C       -5.55708        26.50740         6.25930
   C       -6.72288        27.07107         5.77666
   C       -7.00134        28.29452         6.38819
   C       -6.03908        28.66245         7.33758
   S       -4.79076        27.50775         7.48480
   C       -6.41767        29.91428         7.90216
   C       -7.61610        30.32804         7.30862
   C       -8.02768        29.32962         6.33955
   C       -9.14072        29.34394         5.55110
   C      -10.07618        30.39913         5.59001
   N      -10.84039        31.25357         5.61843
   C       -9.43143        28.30122         4.64652
   N       -9.66891        27.45336         3.91189
   C       -8.06692        31.56296         7.81318
   C       -7.21774        32.05066         8.75935
   S       -5.85215        31.02848         9.06428
   H        0.28813        -3.28762        -3.22811
   H       -1.34296        -1.96600        -4.78901
   H       -2.24426         3.95568        -3.12071
   H        0.45141         4.83572         0.80676
   H       -0.46160        10.73331         2.49606
   H       -3.81145        12.63739        -0.43608
   H       -4.92088        18.44720         1.42625
   H       -1.79137        19.53613         4.95238
   H       -3.25228        25.13336         7.18821
   H       -7.32850        26.60137         5.02244
   H       -8.96379        32.06506         7.49968
   H       -7.30524        32.96472         9.31166
*
