# ORCA input file
# SCF done       -197.259823011797          0.000412083153
! CAM-B3LYP def2-SVP def2/J RIJCOSX Grid4 TightSCF
%maxcore 5000
%tddft
    Mode sTDDFT
    Ethresh 5.0
    maxcore 5000
end

%pal
  nprocs 6
  end
* xyz 0 1
   C        0.27251        -4.86198        -4.29204
   C       -0.02527        -4.16498        -3.17788
   C        1.03760        -3.31514        -2.74990
   C        1.08205        -2.46615        -1.62939
   C       -0.00617        -2.36749        -0.67530
   C       -0.47234        -1.24462        -0.05584
   C       -1.50906        -1.51760         0.86288
   C       -1.84189        -2.83533         0.96882
   S       -0.85576        -3.77701        -0.09938
   C       -2.87166        -3.47298         1.82823
  Cl       -2.28131        -0.27237         1.76888
   C        2.24305        -1.71847        -1.45632
   C        3.35900        -1.80406        -2.32575
   C        3.32369        -2.66976        -3.43554
   C        2.14689        -3.39079        -3.62380
   S        1.85320        -4.53064        -4.91028
   C        4.45156        -2.83873        -4.32940
   C        4.43299        -2.99653        -5.68514
   C        5.71958        -3.20077        -6.22950
   C        6.72803        -3.21494        -5.31200
   S        6.08364        -2.95889        -3.72516
   C        8.18434        -3.41056        -5.52706
  Cl        5.97687        -3.41299        -7.91958
   C        4.40516        -0.94111        -1.92129
   C        4.13186        -0.24715        -0.77730
   S        2.54435        -0.61242        -0.14088
   C        4.96647         0.68390        -0.10858
   C        4.68571         1.35951         1.07209
   O        3.49304         1.15156         1.67600
   C        3.23384         1.85431         2.86846
   C        5.72903         2.20055         1.48802
   C        6.81010         2.18586         0.63498
   S        6.54133         1.11156        -0.70733
   C        8.02306         2.91110         0.75797
   C        9.06832         2.96378        -0.13650
   C       10.13582         3.76788         0.27484
   C       11.36676         3.97097        -0.54090
   C        9.91250         4.34193         1.51892
   S        8.35949         3.88123         2.16393
   C       10.75302         5.18759         2.28401
   C       10.47147         5.68010         3.55750
   O        9.28637         5.36041         4.13351
   C        9.04034         5.84546         5.43221
   C       11.49689         6.46844         4.09215
   C       12.57483         6.60307         3.24243
   S       12.31431         5.74009         1.75975
   C       13.78194         7.32118         3.47201
   C       14.18147         7.94375         4.62040
   C       15.45127         8.56377         4.52107
   C       16.15888         9.25466         5.52310
   C       15.64984         9.32578         6.87822
   C       15.08331         8.32175         7.60950
   C       14.69081         8.74224         8.89880
   C       14.94397        10.05536         9.16647
   S       15.69640        10.80467         7.79789
   C       14.66846        10.82325        10.40715
  Cl       13.95149         7.66914        10.02787
   C       17.36752         9.83158         5.14614
   C       17.91887         9.70407         3.84935
   C       17.23520         8.97330         2.86020
   C       16.00485         8.43429         3.22424
   S       14.96548         7.49072         2.19140
   C       17.76855         8.76535         1.52773
   C       17.08811         8.76709         0.34460
   C       17.91386         8.47011        -0.76158
   C       19.21820         8.22765        -0.44613
   S       19.44756         8.37596         1.26373
   C       20.34735         7.88166        -1.34606
  Cl       17.30606         8.42293        -2.37231
   C       19.16104        10.39602         3.74119
   C       19.53764        10.98562         4.89352
   S       18.41685        10.75311         6.18839
   H       -0.34638        -5.56238        -4.81768
   H       -0.96970        -4.23899        -2.67195
   H       -0.11828        -0.25221        -0.26224
   H       -3.41540        -2.70734         2.37618
   H       -2.40882        -4.15547         2.54078
   H       -3.57519        -4.04531         1.22470
   H        3.54604        -2.93745        -6.28763
   H        8.52179        -4.33222        -5.05311
   H        8.74997        -2.58559        -5.09613
   H        8.39235        -3.46699        -6.59261
   H        5.33173        -0.81998        -2.45144
   H        3.95562         1.59392         3.64883
   H        2.23639         1.54856         3.17878
   H        3.25015         2.93622         2.70378
   H        5.71604         2.80870         2.37413
   H        9.05073         2.42840        -1.06981
   H       11.28890         3.41630        -1.47201
   H       12.25009         3.62966        -0.00145
   H       11.50903         5.02654        -0.77149
   H        8.05757         5.46704         5.70695
   H        9.02815         6.93980         5.45279
   H        9.78524         5.47540         6.14358
   H       11.46191         6.93339         5.05952
   H       13.58111         7.97527         5.50978
   H       14.98795         7.30833         7.26579
   H       14.07395        11.70884        10.18694
   H       15.59989        11.15119        10.86827
   H       14.12746        10.19839        11.11357
   H       16.04510         9.00362         0.24765
   H       20.71185         6.87614        -1.13600
   H       21.17626         8.57441        -1.20686
   H       20.01641         7.92618        -2.38068
   H       19.73489        10.45304         2.83530
   H       20.42096        11.56487         5.07826
*
