# ORCA input file
# SCF done       -208.897304817869          0.000589508504
! CAM-B3LYP def2-SVP def2/J RIJCOSX Grid4 TightSCF
%maxcore 5000
%tddft
    Mode sTDDFT
    Ethresh 5.0
    maxcore 5000
end

%pal
  nprocs 6
  end
* xyz 0 1
   C       -2.80296        -1.41031         1.22893
   C       -2.02166        -1.59796         0.14694
   C       -0.74377        -0.97591         0.26848
   C        0.32650        -1.00463        -0.64343
   C        0.19385        -1.62099        -1.94887
   C       -0.85985        -1.54015        -2.81261
   C       -0.64003        -2.25924        -4.00804
   C        0.56543        -2.89421        -4.07301
   S        1.46803        -2.59945        -2.62506
   C        1.12408        -3.72984        -5.16524
  Cl       -1.81059        -2.31575        -5.27186
   C        1.50786        -0.40084        -0.22839
   C        1.66103         0.25006         1.01932
   C        0.58181         0.29887         1.92302
   C       -0.59809        -0.31978         1.51288
   S       -2.05116        -0.46458         2.46611
   C        0.67863         0.93064         3.22287
   C       -0.28157         1.64806         3.87811
   C        0.13290         2.07294         5.15827
   C        1.39411         1.68463         5.50348
   S        2.10370         0.77215         4.21607
   C        2.13678         1.94222         6.76349
  Cl       -0.88072         3.00913         6.18918
   C        2.94930         0.82283         1.15459
   C        3.76550         0.62284         0.07927
   S        2.96128        -0.29614        -1.17828
   C        5.11833         1.06128        -0.04211
   S        5.87085         1.83235         1.32422
   C        7.36330         2.00216         0.46652
   C        7.27063         1.49479        -0.80754
   C        5.99887         0.95539        -1.09945
   C        5.67592         0.30787        -2.40961
   C        6.76892         0.55819        -3.45912
   C        6.57407        -0.34958        -4.56716
   N        6.40453        -1.08902        -5.42099
   C        8.16409         0.36119        -2.83072
   C        9.19154         0.42883        -3.84436
   N       10.00468         0.52459        -4.64106
   C        8.39867         1.46552        -1.79063
   C        8.50675         2.61602         1.09414
   C        9.45247         3.42568         0.52281
   O       10.36278         3.81486         1.42944
   C       10.01702         3.27674         2.60108
   C        8.87772         2.52793         2.48023
   C        8.25159         1.67629         3.50915
   O        7.80295         0.57507         3.25127
   C        8.22805         2.21482         4.86385
   C        7.96101         1.50480         6.01058
   C        8.01173         2.28353         7.17088
   C        8.29470         3.60258         6.91831
   S        8.50962         3.88963         5.22310
   C        8.41286         4.69735         7.84599
   C        8.15466         6.01799         7.58942
   O        8.36199         6.77001         8.67964
   C        8.75106         5.95161         9.66060
   C        8.80252         4.65228         9.22933
   C        9.33759         3.49784         9.97584
   O        9.99020         2.62160         9.44028
   C        9.07707         3.49649        11.40863
   C        8.12058         4.15836        12.14671
   C        8.17617         3.85885        13.50684
   C        9.17990         2.96320        13.82226
   S       10.04886         2.46360        12.40840
   C        9.52768         2.47007        15.11052
   C       10.54118         1.59082        15.43295
   C       10.59850         1.33997        16.80630
   C        9.61917         2.03380        17.52819
   S        8.62842         2.99471        16.52670
   C        9.76131         1.71203        18.90944
   C       10.82860         0.81899        19.05141
   C       11.39424         0.55266        17.74043
   C       12.44882        -0.25849        17.44127
   C       12.91236        -0.43364        16.12000
   N       13.29397        -0.57801        15.04859
   C       13.14961        -0.97601        18.43373
   N       13.72136        -1.55996        19.23794
   C       11.04222         0.44605        20.39227
   C       10.14942         1.05242        21.22281
   S        9.02887         2.08914        20.40417
   H       -3.79967        -1.77002         1.39380
   H       -2.31720        -2.18046        -0.70558
   H       -1.74397        -0.95732        -2.63150
   H        0.41782        -3.77613        -5.99041
   H        1.32232        -4.74134        -4.81198
   H        2.06355        -3.31106        -5.52445
   H       -1.23796         1.90059         3.46011
   H        1.64478         2.73398         7.32367
   H        3.16323         2.23507         6.54979
   H        2.16453         1.04461         7.38232
   H        3.27248         1.37751         2.01594
   H        4.72229         0.68181        -2.79136
   H        5.55618        -0.77108        -2.25802
   H        6.69651         1.58466        -3.84035
   H        8.20998        -0.62397        -2.35097
   H        8.46933         2.42918        -2.30736
   H        9.34503         1.30137        -1.26992
   H        9.56517         3.79898        -0.47468
   H       10.66704         3.45137         3.43548
   H        7.75288         0.45023         5.99181
   H        7.84705         1.89523         8.15879
   H        7.82472         6.50793         6.69495
   H        9.00683         6.39461        10.60302
   H        7.39090         4.81607        11.71055
   H        7.51409         4.27606        14.24513
   H       11.19577         1.16530        14.69384
   H       11.80748        -0.22905        20.72885
   H       10.07309         0.95686        22.28737
*
