# ORCA input file
# SCF done       -226.675650660673          0.000848414583
! CAM-B3LYP def2-SVP def2/J RIJCOSX Grid4 TightSCF
%maxcore 5000
%tddft
    Mode sTDDFT
    Ethresh 5.0
    maxcore 5000
end

%pal
  nprocs 6
  end
* xyz 0 1
   C        3.13619        -2.74543        -7.59434
   C        2.95250        -3.29015        -6.37480
   C        3.58185        -2.54617        -5.33383
   C        3.61037        -2.83295        -3.95749
   C        3.02046        -4.04749        -3.42758
   C        3.11368        -5.31279        -3.93006
   C        2.41961        -6.26140        -3.14694
   C        1.79043        -5.74004        -2.05453
   S        2.06057        -4.03158        -1.97359
   C        0.97803        -6.43617        -1.02539
  Cl        2.38411        -7.93569        -3.55274
   C        4.25225        -1.90607        -3.14402
   C        4.90495        -0.75179        -3.64350
   C        4.90884        -0.48308        -5.02623
   C        4.22383        -1.38871        -5.83393
   S        4.07101        -1.29207        -7.56767
   C        5.59347         0.65958        -5.59510
   C        5.18835         1.45012        -6.63254
   C        6.12790         2.45283        -6.95547
   C        7.25882         2.43752        -6.19184
   S        7.16746         1.15814        -5.03061
   C        8.44070         3.33288        -6.25296
  Cl        5.85286         3.59398        -8.21526
   C        5.48006         0.01566        -2.60047
   C        5.30436        -0.52840        -1.36280
   S        4.40304        -2.02775        -1.41322
   C        5.75972        -0.01273        -0.11535
   S        6.76050         1.41771        -0.04531
   C        6.86663         1.35829         1.69541
   C        6.13558         0.25870         2.16055
   C        5.52705        -0.50078         1.13625
   N        5.97014        -0.12821         3.49833
   O        6.47662         0.56309         4.37788
   O        5.32730        -1.13284         3.72855
   C        7.63845         2.35675         2.33795
   C        8.33890         3.34542         1.64738
   C        9.02198         4.20050         2.49730
   C        8.83796         3.86393         3.85395
   S        7.83871         2.50434         4.08018
   C        9.57441         4.78963         4.63777
   C       10.21810         5.70240         3.78505
   C        9.89434         5.36243         2.40959
   C       10.32365         5.99556         1.27989
   C        9.94503         5.56685        -0.00976
   N        9.64290         5.21548        -1.05852
   C       11.17768         7.11735         1.32947
   N       11.87266         8.02884         1.36575
   C       10.97050         6.65310         4.47782
   C       10.90021         6.46641         5.84387
   S        9.89218         5.09824         6.28531
   C       11.53759         7.23706         6.85461
   S       12.54634         8.60166         6.43878
   C       12.91140         8.94453         8.10829
   C       12.26005         8.01470         8.92080
   C       11.48950         7.06966         8.20935
   N       12.30553         7.94125        10.33025
   O       13.10573         8.63796        10.93329
   O       11.54092         7.16823        10.87307
   C       13.74040        10.06822         8.37148
   C       14.19027        10.91695         7.38568
   C       15.00989        11.96058         7.85250
   C       15.59846        13.00844         7.10871
   C       15.48809        13.10143         5.66922
   C       15.36539        14.22939         4.90743
   C       15.33549        13.95550         3.52360
   C       15.44766        12.63309         3.20418
   S       15.58292        11.68903         4.64772
   C       15.45304        11.99193         1.86594
  Cl       15.17299        15.20141         2.34644
   C       16.31249        13.95088         7.84143
   C       16.46788        13.89466         9.24957
   C       15.87610        12.85424         9.98653
   C       15.16512        11.90033         9.26022
   S       14.32456        10.54385         9.95130
   C       15.96728        12.75909        11.43023
   C       16.10787        11.63321        12.18961
   C       16.09065        11.90239        13.57545
   C       15.92266        13.21817        13.89463
   S       15.79714        14.16376        12.45029
   C       15.84375        13.84898        15.23615
  Cl       16.26649        10.65977        14.75237
   C       17.30663        14.94519         9.72422
   C       17.75285        15.75059         8.73923
   S       17.18586        15.30332         7.17016
   H        2.76831        -3.10056        -8.53705
   H        2.37451        -4.17843        -6.20018
   H        3.68866        -5.57499        -4.79888
   H       -0.03099        -6.02688        -0.99048
   H        1.42353        -6.31265        -0.03879
   H        0.92179        -7.49671        -1.25756
   H        4.24182         1.35536        -7.13083
   H        8.30127         4.06953        -7.04005
   H        9.34525         2.76138        -6.45878
   H        8.58068         3.84929        -5.30382
   H        5.99612         0.94643        -2.74967
   H        4.93638        -1.37516         1.34237
   H        8.33729         3.41344         0.57389
   H       11.54463         7.44328         4.02819
   H       10.93218         6.29574         8.70617
   H       13.91360        10.79115         6.35464
   H       15.26126        15.22028         5.30800
   H       15.40509        12.75594         1.09416
   H       14.59889        11.32405         1.75620
   H       16.35816        11.40197         1.72659
   H       16.24927        10.64650        11.79029
   H       16.00680        13.09529        16.00236
   H       14.86476        14.30256        15.39015
   H       16.59535        14.63068        15.33939
   H       17.57034        15.07515        10.75687
   H       18.39423        16.60546         8.82818
*
