# ORCA input file
# SCF done       -168.137739349792          0.000599401073
! CAM-B3LYP def2-SVP def2/J RIJCOSX Grid4 TightSCF
%maxcore 5000
%tddft
    Mode sTDDFT
    Ethresh 5.0
    maxcore 5000
end

%pal
  nprocs 6
  end
* xyz 0 1
   C       -0.39502        -0.92433         6.34089
   C        0.42311        -1.32756         5.28342
   C       -0.03627        -1.37618         3.98395
   C       -1.35804        -1.00532         3.76466
   C       -2.17516        -0.59994         4.84443
   C       -1.71243        -0.55146         6.14469
   O       -3.39906        -0.30266         4.34125
   C       -3.27781        -0.53536         3.00311
   N       -2.10585        -0.94579         2.62015
   C       -4.40092        -0.32681         2.15492
   C       -4.44618        -0.51454         0.78697
   C       -5.71172        -0.22660         0.27828
   C       -6.62220         0.18064         1.27531
   S       -5.92033         0.21027         2.83077
   C       -7.87663         0.44065         0.67375
   C       -7.75923         0.19569        -0.71074
   C       -6.39789        -0.22708        -1.00321
   C       -5.88300        -0.55417        -2.22280
   C       -6.65963        -0.51594        -3.40065
   N       -7.28177        -0.49122        -4.36363
   C       -4.54057        -0.95358        -2.39689
   N       -3.45280        -1.27838        -2.55619
   C       -8.94505         0.41128        -1.39721
   C       -9.96957         0.81836        -0.54920
   S       -9.44957         0.93957         1.12449
   C      -11.30785         1.10689        -0.91502
   C      -12.26164         1.50198         0.05213
   C      -13.64213         1.78387        -0.26092
   N      -14.45336         2.21800         0.71330
   C      -14.00062         2.34691         1.93627
   C      -12.64870         2.00159         2.25980
   N      -11.83225         1.60560         1.31481
   C      -12.17476         2.09307         3.59128
   N      -11.81653         2.17573         4.67613
   C      -14.85458         2.85745         2.94718
   N      -15.49708         3.28549         3.79252
   C      -14.13825         1.63823        -1.58141
   C      -13.17451         1.27987        -2.55164
   C      -11.79157         1.01838        -2.23985
   N      -11.09890         0.69518        -3.33237
   S      -12.06572         0.71633        -4.60905
   N      -13.42157         1.13371        -3.85359
   C      -15.49579         1.82560        -1.95048
   C      -16.59323         2.04443        -1.12522
   C      -17.77223         2.16504        -1.84576
   C      -17.58013         2.04771        -3.23860
   S      -15.94906         1.76213        -3.65117
   C      -18.83837         2.19576        -3.87167
   C      -19.82095         2.40480        -2.88906
   C      -19.18715         2.37994        -1.58196
   C      -19.79101         2.50056        -0.36509
   C      -21.18141         2.70191        -0.23921
   N      -22.31241         2.86502        -0.14306
   C      -19.06900         2.40488         0.84428
   N      -18.48795         2.30648         1.82746
   C      -21.10079         2.56225        -3.42587
   C      -21.10791         2.47973        -4.80291
   S      -19.49672         2.19966        -5.44602
   C      -22.23760         2.59260        -5.69633
   C      -22.02721         2.65658        -7.08910
   C      -23.05671         2.76675        -7.99374
   C      -24.34977         2.81388        -7.48661
   C      -24.56389         2.74760        -6.09217
   C      -23.53617         2.63692        -5.18126
   O      -25.90427         2.81004        -5.88730
   C      -26.42218         2.90936        -7.12750
   N      -25.57852         2.91690        -8.09512
   H        0.01235        -0.90335         7.34014
   H        1.44387        -1.60858         5.49456
   H        0.58922        -1.68646         3.16359
   H       -2.34834        -0.23976         6.95726
   H       -3.59053        -0.84368         0.22721
   H       -9.09613         0.28843        -2.45385
   H      -16.50398         2.10884        -0.05706
   H      -21.97942         2.74093        -2.83487
   H      -21.01102         2.62144        -7.45424
   H      -22.87857         2.81608        -9.05489
   H      -23.73871         2.57900        -4.12551
   H      -27.48819         2.97433        -7.22631
*
