# ORCA input file
# SCF done       -216.694208022286          0.000595569287
! CAM-B3LYP def2-SVP def2/J RIJCOSX Grid4 TightSCF
%maxcore 5000
%tddft
    Mode sTDDFT
    Ethresh 5.0
    maxcore 5000
end

%pal
  nprocs 6
  end
* xyz 0 1
   C        2.01450        -1.47994         8.07694
   C        2.83090        -1.94938         9.06672
   F        3.37093        -1.10330         9.95270
   C        3.11521        -3.32672         9.16961
   F        3.91826        -3.75841        10.15070
   C        2.57896        -4.21515         8.28056
   C        1.73403        -3.76246         7.24823
   C        1.44530        -2.37038         7.14335
   C        0.60113        -1.89306         6.11648
   C        0.05863        -2.78025         5.22205
   C        0.34819        -4.16910         5.33747
   C        1.16634        -4.65778         6.31549
   C       -0.35442        -4.90698         4.26926
   O       -0.21216        -6.07105         3.97464
   C       -1.20261        -3.89491         3.58096
   C       -0.83178        -2.57584         4.08467
   C       -1.21863        -1.36676         3.58039
   C       -2.03065        -1.18555         2.43881
   N       -2.67014        -0.95924         1.51318
   C       -0.81977        -0.12233         4.11643
   N       -0.52836         0.91597         4.50798
   C       -2.15366        -4.19334         2.67583
   C       -2.60740        -5.53345         2.32358
   C       -3.13191        -6.39939         3.29712
   O       -3.09471        -5.99169         4.60845
   C       -2.57794        -6.93302         5.54122
   C       -3.74853        -7.59154         2.89043
   O       -4.41016        -8.40640         3.77831
   C       -5.52219        -7.79905         4.42478
   C       -3.64039        -8.00418         1.55608
   C       -3.02649        -7.17808         0.62217
   C       -2.59130        -5.92380         0.98798
   C       -4.14965        -9.31501         1.13167
   C       -5.49101        -9.69397         1.22982
   C       -5.94048       -11.00570         0.83828
   N       -7.25861       -11.31523         0.92275
   C       -8.07916       -10.42744         1.36065
   C       -7.63660        -9.12296         1.73444
   N       -6.39829        -8.78055         1.66165
   F       -8.50786        -8.21077         2.16575
   F       -9.36585       -10.75415         1.45294
   C       -5.06334       -11.96831         0.32700
   C       -3.73120       -11.57137         0.16576
   C       -3.27932       -10.25583         0.56902
   N       -1.96718       -10.09709         0.34751
   S       -1.38305       -11.43925        -0.28801
   N       -2.72575       -12.30678        -0.32898
   C       -5.52749       -13.29860        -0.07105
   C       -6.26314       -14.09047         0.82649
   O       -6.39813       -13.63260         2.10298
   C       -7.66986       -13.74494         2.72207
   C       -6.75090       -15.32782         0.39806
   O       -7.39311       -16.17916         1.28299
   C       -6.49641       -16.88143         2.12503
   C       -6.56446       -15.74525        -0.93288
   C       -5.77546       -14.96810        -1.78190
   C       -5.25704       -13.76889        -1.35133
   C       -7.12378       -16.98607        -1.41420
   C       -8.30327       -17.55016        -1.07422
   C       -8.55579       -18.98882        -1.37316
   O       -7.93206       -19.69273        -2.13185
   C       -9.67810       -19.37164        -0.49244
   C      -10.22368       -20.60739        -0.29193
   C      -11.28501       -20.74890         0.62914
   C      -11.75483       -19.60300         1.33518
   C      -12.81005       -19.75273         2.25813
   C      -13.37443       -20.97949         2.46630
   C      -12.91037       -22.11141         1.76573
   C      -11.88746       -22.00006         0.86661
   F      -13.48233       -23.30191         1.99103
   F      -14.37803       -21.11921         3.34230
   C      -11.17412       -18.33570         1.10372
   C      -10.15556       -18.21826         0.19490
   C       -9.41367       -17.05359        -0.27650
   C       -9.81726       -15.75342        -0.16552
   C       -9.22927       -14.68208        -0.87185
   N       -8.84351       -13.78626        -1.47631
   C      -10.91505       -15.34228         0.61865
   N      -11.78478       -14.96547         1.26570
   H        1.80790        -0.42310         8.01158
   H        2.80705        -5.26550         8.37267
   H        0.40024        -0.83520         6.06538
   H        1.37442        -5.71517         6.37880
   H       -2.66587        -3.39486         2.15261
   H       -1.58906        -7.27526         5.22694
   H       -3.22586        -7.80081         5.66992
   H       -2.49915        -6.39008         6.48224
   H       -6.28007        -7.51985         3.68972
   H       -5.24128        -6.91080         4.99498
   H       -5.92113        -8.55612         5.09789
   H       -2.94839        -7.50602        -0.40202
   H       -2.18080        -5.25134         0.25039
   H       -8.46554       -13.46904         2.02728
   H       -7.65020       -13.03886         3.55160
   H       -7.86044       -14.74756         3.10983
   H       -5.84331       -16.20107         2.67907
   H       -5.87824       -17.57016         1.53863
   H       -7.11337       -17.44889         2.81997
   H       -5.61097       -15.30166        -2.79454
   H       -4.66585       -13.16115        -2.01724
   H       -6.50459       -17.56091        -2.09557
   H       -9.85065       -21.46547        -0.83024
   H      -13.18019       -18.89615         2.79950
   H      -11.54385       -22.87554         0.33825
   H      -11.54387       -17.48668         1.65602
*
