# ORCA input file
# SCF done       -209.060125954683          0.000542260890
! CAM-B3LYP def2-SVP def2/J RIJCOSX Grid4 TightSCF
%maxcore 5000
%tddft
    Mode sTDDFT
    Ethresh 5.0
    maxcore 5000
end

%pal
  nprocs 6
  end
* xyz 0 1
   C        3.86623         5.20196         3.42293
   C        3.32587         5.86658         4.49260
   C        4.08556         6.61825         5.41100
   N        4.66084         7.25586         6.17253
   C        1.95955         5.79044         4.83125
   N        0.85711         5.71704         5.14333
   C        5.29011         5.00510         3.18082
   C        5.45140         3.85317         2.35551
   C        6.68739         3.40091         1.99319
   C        7.83377         4.09877         2.43639
   C        7.67701         5.26069         3.24686
   C        6.38506         5.70149         3.61490
   C        8.82905         5.95188         3.67346
   C       10.07740         5.51626         3.32115
   C       10.23113         4.37132         2.52517
   C        9.13354         3.67762         2.09272
   C        4.12505         3.32041         1.99457
   O        3.86275         2.32624         1.35946
   C        3.15183         4.32483         2.51862
   C        1.88852         4.35022         2.01921
   C        0.95094         5.41058         1.99166
   C       -0.39304         5.29409         1.67257
   C       -1.03781         6.52744         1.64160
   C       -0.16831         7.60087         1.90769
   S        1.42377         7.09419         2.21041
   C       -0.90463         8.81384         1.82478
   C       -2.23326         8.50277         1.51074
   C       -2.36461         7.06209         1.37501
   C       -3.49215         6.37597         1.03117
   C       -4.69911         7.04983         0.74783
   N       -5.66371         7.61891         0.50082
   C       -3.51587         4.97073         0.90733
   N       -3.53708         3.82990         0.79837
   C       -3.03980         9.64293         1.40640
   C       -2.32829        10.79065         1.64458
   S       -0.64891        10.49294         1.98624
   C       -2.88023        12.18219         1.55148
   C       -1.89802        13.23755         2.05829
   N       -3.04349        12.37564         0.09361
   N       -4.07564        12.52067        -0.50445
   C       -5.42881        12.65734         0.08206
   C       -5.40823        12.42713         1.54855
   C       -4.18689        12.23350         2.25520
   N       -4.47736        12.08143         3.51533
   O       -5.80865        12.17999         3.60778
   N       -6.37910        12.39099         2.41539
   C       -6.35814        11.69371        -0.65114
   C       -5.74906        14.09907        -0.17989
   C       -5.16950        15.15603         0.47348
   C       -5.59835        16.38435        -0.04190
   C       -6.51221        16.23539        -1.09272
   S       -6.82956        14.59465        -1.45003
   C       -6.88020        17.52903        -1.55272
   C       -6.18827        18.49094        -0.78479
   C       -5.34981        17.79814         0.18136
   C       -4.47078        18.32899         1.07882
   C       -4.25419        19.71448         1.24258
   N       -4.04700        20.82976         1.40381
   C       -3.68023        17.49119         1.89453
   N       -3.03238        16.79017         2.53087
   C       -6.46303        19.79746        -1.16706
   C       -7.36128        19.85530        -2.22446
   S       -7.86498        18.23570        -2.73871
   C       -7.90912        20.91975        -2.97077
   C       -7.76372        22.27498        -2.86814
   C       -8.37990        23.22444        -3.78670
   C       -9.11089        22.94105        -4.91202
   C       -9.66889        23.92317        -5.75911
   N      -10.15433        24.66003        -6.49351
   C       -9.41717        21.66146        -5.42130
   N       -9.70935        20.66630        -5.91626
   C       -8.05680        24.56928        -3.32451
   C       -7.24211        24.46468        -2.16316
   C       -7.02373        23.04785        -1.83707
   O       -6.37793        22.62935        -0.89905
   C       -6.77069        25.56296        -1.50354
   C       -7.10036        26.84817        -1.98713
   C       -7.91830        26.96476        -3.14817
   C       -8.39133        25.80742        -3.80805
   C       -8.24231        28.25216        -3.62300
   C       -7.78104        29.37057        -2.98364
   C       -6.97577        29.25412        -1.84066
   C       -6.64254        28.01962        -1.35285
   H        6.79101         2.52149         1.37517
   H        6.29067         6.58896         4.22147
   H        8.70545         6.83073         4.28907
   H       10.95376         6.05142         3.65469
   H       11.22349         4.04185         2.25613
   H        9.24603         2.79558         1.47946
   H        1.58728         3.45711         1.47917
   H       -0.86503         4.34417         1.49698
   H       -4.08924         9.62832         1.17270
   H       -1.00286        13.22361         1.44149
   H       -1.63925        13.02345         3.09229
   H       -2.33632        14.23214         2.01001
   H       -6.09184        10.66357        -0.42385
   H       -6.26800        11.84768        -1.72345
   H       -7.38377        11.86724        -0.33533
   H       -4.47438        15.04548         1.28560
   H       -6.04850        20.68168        -0.71559
   H       -8.55278        20.57304        -3.77057
   H       -6.15304        25.44922        -0.62506
   H       -9.00938        25.93435        -4.68216
   H       -8.86205        28.33707        -4.50358
   H       -8.03425        30.35205        -3.35552
   H       -6.62089        30.14740        -1.34882
   H       -6.02287        27.92287        -0.47345
*
