# ORCA input file
# SCF done       -183.384473141770          0.000561768955
! CAM-B3LYP def2-SVP def2/J RIJCOSX Grid4 TightSCF
%maxcore 5000
%tddft
    Mode sTDDFT
    Ethresh 5.0
    maxcore 5000
end

%pal
  nprocs 6
  end
* xyz 0 1
   C        2.21548         3.15868        -3.05103
   C        2.55395         3.84125        -1.91196
   C        3.81585         4.43402        -1.70530
   N        4.82634         4.94115        -1.50705
   C        1.71294         3.93995        -0.78415
   N        1.08479         3.99643         0.17460
   C        3.13169         2.80763        -4.13219
   C        2.56905         1.72471        -4.86960
   C        3.22444         1.15673        -5.92351
   C        4.48742         1.66365        -6.30403
   C        5.04599         2.75894        -5.58418
   C        4.34878         3.32143        -4.48986
   C        6.30154         3.26191        -5.98112
   C        6.97633         2.70874        -7.03512
   C        6.42680         1.62852        -7.74152
   C        5.20907         1.11713        -7.38349
   C        1.24327         1.39793        -4.31610
   O        0.49275         0.50653        -4.64743
   C        0.97948         2.43993        -3.28519
   C       -0.28380         2.59881        -2.81237
   C       -0.88002         3.71725        -2.14746
   C       -0.45543         5.01995        -2.38152
   C       -1.15602         6.11829        -1.89853
   C       -2.31082         5.97132        -1.14556
   C       -2.69995         4.66820        -0.73530
   C       -3.62252         4.37189         0.27491
  Si       -4.00727         2.63311        -0.04321
   C       -2.37073         2.28048        -0.73731
   C       -1.98567         3.51256        -1.27070
   C       -3.11937         7.13312        -0.81698
   C       -2.56460         8.33660        -0.34376
   C       -3.37504         9.50501        -0.08765
   N       -2.80879        10.60087         0.45053
   C       -1.52757        10.60895         0.69834
   C       -0.71167         9.46157         0.39920
   N       -1.24194         8.37538        -0.09409
   C        0.68504         9.51656         0.63509
   N        1.80956         9.62020         0.82694
   C       -0.94146        11.77693         1.24735
   N       -0.42853        12.71259         1.66418
   C       -4.76089         9.52958        -0.34434
   C       -5.31595         8.32001        -0.79635
   C       -4.50878         7.14189        -1.03010
   N       -5.24060         6.13419        -1.52165
   S       -6.76255         6.61380        -1.66503
   N       -6.59607         8.10977        -1.12389
   C       -5.57306        10.70744        -0.10143
   C       -6.80832        10.56371         0.52592
   C       -7.52081        11.65966         0.98499
   C       -7.02982        12.95862         0.83916
   C       -5.94383        13.15912        -0.05870
   C       -5.62354        14.36797        -0.68177
  Si       -3.90000        14.08642        -1.15523
   C       -4.16759        12.31787        -1.43812
   C       -5.16161        12.00666        -0.49956
   C       -7.63533        14.00408         1.59728
   C       -7.01169        15.08498         2.15657
   C       -7.67420        16.15864         2.87545
   C       -9.02147        16.41458         2.90268
   C       -9.60629        17.49574         3.59385
   N      -10.14736        18.35183         4.13527
   C      -10.01216        15.66560         2.23462
   N      -10.88011        15.12249         1.71329
   C       -6.64629        16.97847         3.50596
   C       -5.37152        16.44943         3.15704
   C       -5.54649        15.26243         2.30359
   O       -4.65535        14.55477         1.86969
   C       -4.20966        17.01031         3.60194
   C       -4.27087        18.15374         4.43047
   C       -5.54231        18.68783         4.78733
   C       -6.72898        18.08153         4.31315
   C       -5.59205        19.82513         5.61826
   C       -4.44188        20.40941         6.07514
   C       -3.19055        19.88301         5.72270
   C       -3.10677        18.77941         4.91726
   H        2.78439         0.33098        -6.46278
   H        4.79155         4.15448        -3.96641
   H        6.72233         4.09142        -5.43195
   H        7.93838         3.10029        -7.33014
   H        6.97285         1.20388        -8.57068
   H        4.78049         0.28549        -7.92366
   H       -0.95787         1.78421        -3.06344
   H        0.39167         5.19361        -3.02954
   H       -0.82538         7.10798        -2.17248
   H       -4.22992         5.15242         0.70285
   H       -1.94446         1.36186        -1.10693
   H       -7.17671         9.57185         0.73630
   H       -8.42344        11.50017         1.55765
   H       -6.12844        15.27553        -0.39109
   H       -3.49875        11.55388        -1.80096
   H       -8.68266        13.85361         1.83285
   H       -3.25572        16.58637         3.32503
   H       -7.67571        18.50563         4.60772
   H       -6.55826        20.22699         5.88634
   H       -4.49070        21.28058         6.71119
   H       -2.29303        20.35562         6.09292
   H       -2.14599        18.36868         4.64336
*
