# ORCA input file
# SCF done       -209.572499487825          0.000419920635
! CAM-B3LYP def2-SVP def2/J RIJCOSX Grid4 TightSCF
%maxcore 5000
%tddft
    Mode sTDDFT
    Ethresh 5.0
    maxcore 5000
end

%pal
  nprocs 6
  end
* xyz 0 1
   C        0.20937         1.51416         2.29619
   C       -0.15740         2.47396         3.20033
   C       -0.80314         2.19891         4.42250
   N       -1.33018         2.03206         5.42838
   C        0.13500         3.84114         3.03564
   N        0.38984         4.95745         2.94517
   C        0.14772         0.07470         2.51526
   C        1.03568        -0.56465         1.60013
   C        1.21035        -1.91889         1.59925
   C        0.48624        -2.70778         2.52130
   C       -0.41570        -2.07581         3.42596
   C       -0.57237        -0.67086         3.40896
   C       -1.13767        -2.87620         4.33449
   C       -0.97569        -4.23470         4.35339
   C       -0.08628        -4.85583         3.46381
   C        0.62887        -4.10877         2.56766
   C        1.64905         0.45102         0.72785
   O        2.49587         0.30100        -0.12332
   C        0.95926         1.72876         1.07469
   C        1.04308         2.78309         0.22421
   C        0.19850         3.92345         0.16255
   C        0.43760         5.16658        -0.34709
   C       -0.74892         5.99822        -0.17178
   N       -1.72906         5.22731         0.36499
   C       -1.23295         3.94618         0.60296
   O       -1.90365         3.03720         1.02933
   C       -3.08198         5.60892         0.66268
   C       -0.49161         7.24103        -0.65159
   C        0.93295         7.21807        -1.11279
   O        1.61224         8.12058        -1.52502
   N        1.41505         5.91501        -0.90442
   C        2.76286         5.51279        -1.20290
   C       -1.26633         8.45569        -0.70206
   C       -1.25374         9.25392        -1.85874
   C       -1.90115        10.53651        -1.91460
   N       -1.84727        11.26074        -3.06041
   C       -1.23664        10.76141        -4.08086
   C       -0.65632         9.45932        -4.04455
   N       -0.67465         8.74541        -2.97302
   F       -0.11031         8.93559        -5.13804
   F       -1.17087        11.50249        -5.18484
   C       -2.63164        11.03417        -0.82454
   C       -2.64326        10.23851         0.33473
   C       -1.97919         8.95747         0.39749
   N       -2.09308         8.40437         1.61106
   S       -2.92335         9.39624         2.55693
   N       -3.18821        10.57031         1.50957
   C       -3.44827        12.22274        -0.85840
   C       -3.26091        13.50302        -1.27275
   C       -4.48796        14.25682        -1.02491
   N       -5.42175        13.42265        -0.51315
   C       -4.86455        12.14299        -0.38057
   O       -5.48493        11.18222        -0.00366
   C       -6.77689        13.74437        -0.15478
   C       -4.31983        15.54591        -1.42518
   C       -2.88188        15.64897        -1.84576
   O       -2.24069        16.63733        -2.08964
   N       -2.33213        14.36385        -1.75843
   C       -0.95533        14.08837        -2.06327
   C       -5.21697        16.65041        -1.38142
   C       -5.21849        17.63363        -2.31670
   C       -5.90667        18.91110        -2.28418
   C       -6.78417        19.34345        -1.32431
   C       -7.41935        20.60303        -1.33797
   N       -7.97004        21.60911        -1.29213
   C       -7.19933        18.57669        -0.21650
   N       -7.58282        17.99252         0.69518
   C       -5.49292        19.65618        -3.46653
   C       -4.66089        18.82389        -4.27188
   C       -4.52588        17.50551        -3.63132
   O       -4.07206        16.49006        -4.10888
   C       -4.13050        19.26240        -5.45031
   C       -4.40209        20.58072        -5.88104
   C       -5.23197        21.41905        -5.08138
   C       -5.77388        20.93583        -3.86919
   C       -5.49995        22.73104        -5.52312
   C       -4.97361        23.19508        -6.69763
   C       -4.15539        22.36961        -7.48350
   C       -3.87556        21.09081        -7.08388
   H        1.89198        -2.38456         0.90295
   H       -1.26977        -0.21636         4.09514
   H       -1.81919        -2.39295         5.01899
   H       -1.53194        -4.83875         5.05449
   H        0.02891        -5.92907         3.49198
   H        1.31472        -4.58181         1.88011
   H        1.80813         2.70085        -0.54174
   H       -3.57317         5.99452        -0.23218
   H       -3.08770         6.37574         1.43798
   H       -3.60173         4.71881         1.01508
   H        3.31856         6.40948        -1.47526
   H        2.78179         4.81236        -2.04010
   H        3.21950         5.04588        -0.32924
   H       -7.27991        14.23949        -0.98656
   H       -6.80470        14.39651         0.72018
   H       -7.28364        12.80879         0.07901
   H       -0.48282        15.03638        -2.31748
   H       -0.89192        13.40557        -2.90999
   H       -0.45437        13.64297        -1.20213
   H       -5.90034        16.68913        -0.54386
   H       -3.50473        18.61290        -6.04391
   H       -6.39811        21.59404        -3.28566
   H       -6.13053        23.36224        -4.91425
   H       -5.18467        24.20115        -7.02779
   H       -3.74805        22.75228        -8.40735
   H       -3.24638        20.45111        -7.68520
*
