# ORCA input file
# SCF done       -271.362827495394          0.000368601938
! CAM-B3LYP def2-SVP def2/J RIJCOSX Grid4 TightSCF
%maxcore 5000
%tddft
    Mode sTDDFT
    Ethresh 5.0
    maxcore 5000
end

%pal
  nprocs 6
  end
* xyz 0 1
   C        5.20589         6.86252         2.14724
   C        4.88856         7.33094         0.90041
   C        5.56381         8.38762         0.25893
   N        6.06675         9.25985        -0.29296
   C        3.90037         6.74197         0.08490
   N        3.16881         6.24762        -0.64838
   C        6.39594         7.20529         2.91485
   C        6.61969         6.18154         3.88264
   C        7.69357         6.21544         4.72452
   C        8.59982         7.29675         4.64348
   C        8.37362         8.32950         3.68782
   C        7.25805         8.26480         2.82198
   C        9.28235         9.40545         3.62358
   C       10.36394         9.45959         4.45968
   C       10.58655         8.44177         5.39921
   C        9.72374         7.38342         5.48855
   C        5.53656         5.18292         3.80105
   O        5.42112         4.15377         4.42523
   C        4.56267         5.75000         2.82475
   C        3.28636         5.30334         2.78250
   C        2.15125         5.97728         2.20290
   C        2.04405         7.37359         2.23817
   C        0.96490         8.01112         1.67591
   C       -0.04234         7.28092         1.03825
   C        0.03887         5.88695         1.04560
   C        1.10823         5.24484         1.62881
   C       -1.19703         7.95689         0.44157
   C       -2.50475         7.32617         0.68982
   C       -3.42860         7.16070        -0.34041
   C       -4.64832         6.55869        -0.09736
   C       -4.96499         6.11178         1.17503
   C       -4.04889         6.26063         2.20323
   C       -2.82558         6.85686         1.96257
   C       -1.08199         9.09221        -0.28982
   C        0.21058         9.63305        -0.73528
   C        1.19769         8.80815        -1.27292
   C        2.40244         9.34205        -1.68905
   C        2.64597        10.70043        -1.57009
   C        1.66493        11.53016        -1.05204
   C        0.45240        11.00416        -0.64834
   C       -2.26273         9.87712        -0.67669
   C       -3.21550        10.23529         0.27818
   C       -4.30090        11.00722        -0.06747
   C       -4.48896        11.41786        -1.38947
   C       -3.53592        11.06068        -2.34539
   C       -2.42854        10.32228        -1.98775
   C       -5.65520        12.21532        -1.74429
   C       -6.39664        11.99014        -2.91663
   C       -7.56108        12.78267        -3.24779
   N       -8.18423        12.58875        -4.42542
   C       -7.78213        11.63205        -5.21688
   C       -6.70669        10.75776        -4.82440
   N       -6.04265        10.96827        -3.72061
   C       -6.35631         9.65927        -5.64832
   N       -6.10429         8.78465        -6.34407
   C       -8.42063        11.46764        -6.47107
   N       -8.92120        11.31018        -7.48961
   C       -8.03719        13.80269        -2.40559
   C       -7.28098        14.04590        -1.25046
   C       -6.11797        13.25037        -0.91625
   N       -5.56492        13.65268         0.23515
   S       -6.41326        14.87299         0.82588
   N       -7.52440        14.97779        -0.32050
   C       -9.23195        14.56089        -2.74144
   C      -10.35272        13.91731        -3.27317
   C      -11.45538        14.63932        -3.66380
   C      -11.46960        16.03254        -3.56137
   C      -10.37679        16.66695        -2.96639
   C       -9.27782        15.94419        -2.55745
   C      -12.61042        16.81306        -4.04889
   C      -13.02343        17.94326        -3.20350
   C      -13.11176        17.78618        -1.82092
   C      -13.48930        18.84516        -1.01733
   C      -13.76934        20.08001        -1.57889
   C      -13.66383        20.25182        -2.94967
   C      -13.29286        19.19414        -3.75730
   C      -13.21827        16.52436        -5.22954
   C      -12.64674        15.54961        -6.17526
   C      -13.46173        14.58542        -6.76550
   C      -12.92232        13.63699        -7.61488
   C      -11.56679        13.64459        -7.89882
   C      -10.75608        14.62270        -7.34578
   C      -11.28948        15.57078        -6.49485
   C      -14.47507        17.15106        -5.63879
   C      -15.52297        17.33753        -4.72927
   C      -16.70329        17.90962        -5.13166
   C      -16.90204        18.32809        -6.46335
   C      -15.85745        18.11302        -7.37499
   C      -14.67853        17.53041        -6.96852
   C      -18.17285        18.92239        -6.75479
   C      -18.75407        19.46580        -7.86294
   C      -20.11405        20.00534        -7.83912
   C      -21.02163        19.93920        -6.81366
   C      -22.32468        20.47961        -6.87682
   N      -23.39563        20.89273        -6.84754
   C      -20.84894        19.32870        -5.55257
   N      -20.82905        18.86016        -4.50295
   C      -20.38292        20.61595        -9.13498
   C      -19.24967        20.41559        -9.96895
   C      -18.20829        19.68441        -9.22834
   O      -17.13385        19.35483        -9.68670
   C      -19.20521        20.86735       -11.25634
   C      -20.31766        21.56188       -11.77992
   C      -21.45518        21.77663       -10.94945
   C      -21.47101        21.29342        -9.62133
   C      -22.55939        22.47565       -11.47898
   C      -22.54310        22.93827       -12.76640
   C      -21.42293        22.72422       -13.58372
   C      -20.33384        22.05096       -13.10090
   H        7.85067         5.42681         5.44534
   H        7.10351         9.06172         2.11078
   H        9.10836        10.18513         2.89653
   H       11.05491        10.28724         4.40154
   H       11.44486         8.50060         6.05164
   H        9.88997         6.59666         6.20984
   H        3.09342         4.36617         3.29450
   H        2.80163         7.95223         2.74808
   H        0.88626         9.08636         1.73503
   H       -0.74356         5.31029         0.57448
   H        1.16963         4.16705         1.60801
   H       -3.18011         7.49147        -1.33775
   H       -5.35304         6.43375        -0.90618
   H       -5.91949         5.64319         1.36350
   H       -4.28830         5.90911         3.19630
   H       -2.11343         6.97598         2.76728
   H        1.01902         7.74817        -1.37296
   H        3.15606         8.69256        -2.10797
   H        3.59513        11.10822        -1.88305
   H        1.84478        12.59181        -0.96360
   H       -0.31135        11.65220        -0.24089
   H       -3.08755         9.91336         1.30110
   H       -5.02647        11.28224         0.68177
   H       -3.65431        11.38970        -3.36583
   H       -1.68682        10.06726        -2.73092
   H      -10.36071        12.84217        -3.35937
   H      -12.32083        14.12455        -4.05215
   H      -10.38381        17.74209        -2.85794
   H       -8.42814        16.44863        -2.12453
   H      -12.89722        16.82167        -1.38273
   H      -13.56429        18.70738         0.05134
   H      -14.06293        20.90726        -0.95016
   H      -13.86801        21.21631        -3.39088
   H      -13.19573        19.33587        -4.82385
   H      -14.51767        14.56877        -6.53344
   H      -13.56248        12.88518        -8.05258
   H      -11.13998        12.89370        -8.54533
   H       -9.70172        14.64088        -7.57756
   H      -10.65620        16.33838        -6.07404
   H      -15.40397        17.01190        -3.70682
   H      -17.50089        18.03781        -4.41354
   H      -15.97617        18.40674        -8.40379
   H      -13.88486        17.37744        -7.68562
   H      -18.80370        18.94426        -5.87329
   H      -18.33036        20.69611       -11.86602
   H      -22.34816        21.47661        -9.02215
   H      -23.41992        22.63693       -10.84629
   H      -23.39397        23.47182       -13.16290
   H      -21.42757        23.09572       -14.59759
   H      -19.46820        21.88316       -13.72500
*
