# ORCA input file
# SCF done       -192.092141848701          0.000917955755
! CAM-B3LYP def2-SVP def2/J RIJCOSX Grid4 TightSCF
%maxcore 5000
%tddft
    Mode sTDDFT
    Ethresh 5.0
    maxcore 5000
end

%pal
  nprocs 6
  end
* xyz 0 1
   C        3.85069         0.29365        -1.67456
   C        2.71528         0.10190        -2.61962
   O        1.76930        -0.63765        -2.45661
   C        2.98033         1.03703        -3.72863
   C        4.23421         1.62434        -3.55324
   C        4.86797         1.05227        -2.37002
   C        6.21652         0.99211        -2.13713
   C        6.78827         0.17159        -1.14207
   N        7.28694        -0.52305        -0.37612
   C        7.18475         1.65026        -2.92164
   N        8.01331         2.16921        -3.52306
   C        4.71082         2.57974        -4.45923
   C        3.92266         2.92327        -5.52656
   C        2.65642         2.33656        -5.74355
   C        2.15993         1.36577        -4.82524
   C        0.89488         0.78428        -5.04612
   C        0.15184         1.14839        -6.13499
   C        0.63570         2.10411        -7.04280
   C        1.85897         2.68582        -6.85235
   C        3.75020        -0.13888        -0.39011
   C        4.48504         0.27750         0.74475
   C        4.61691        -0.42516         1.93630
   C        5.37507         0.25604         2.87323
   C        5.78854         1.51283         2.42098
   S        5.26983         1.84769         0.82680
   C        6.54562         2.14631         3.42933
   C        6.63605         1.28402         4.53044
   C        5.88902        -0.00307         4.26976
   C        6.83341        -1.20842         4.29046
   C        4.74282        -0.19161         5.26762
   C        7.38533         1.81927         5.56435
   C        7.85617         3.08728         5.25037
   S        7.37240         3.62831         3.66317
   C        8.65962         3.94582         6.04416
   N        8.95980         5.14255         5.56301
   N        9.69204         6.00887         6.19373
   C       10.23896         5.78397         7.37852
   C       10.00162         4.52614         8.01616
   C        9.16859         3.57516         7.32813
   N        9.07491         2.50864         8.09193
   O        9.79837         2.77109         9.18238
   N       10.36442         3.97945         9.15598
   C       11.03128         6.80958         7.95631
   C       11.73650         6.77689         9.15198
   C       12.40284         7.96835         9.38261
   C       12.19544         8.90737         8.36306
   S       11.18639         8.32557         7.10650
   C       12.89748        10.08899         8.68446
   C       13.56531         9.90831         9.90262
   C       13.30412         8.52855        10.45770
   C       14.59332         7.71195        10.58300
   C       12.57935         8.61487        11.80423
   C       14.24559        11.03818        10.31336
   C       14.10633        12.09813         9.41994
   S       13.13503        11.64642         8.02755
   C       14.65413        13.39547         9.45839
   C       15.20428        14.08309        10.49899
   C       16.08213        15.24888        10.19844
   O       16.18635        15.80151         9.12498
   C       16.80457        15.52438        11.45324
   C       16.31422        14.69383        12.46076
   C       15.21038        13.89527        11.93026
   C       14.22885        13.30643        12.68629
   C       13.03363        12.78236        12.15477
   N       12.02615        12.37681        11.78211
   C       14.25141        13.22175        14.09305
   N       14.22503        13.08987        15.23336
   C       16.86312        14.73577        13.74862
   C       17.88455        15.61460        14.00074
   C       18.39061        16.48197        13.00825
   C       17.84412        16.44324        11.69231
   C       18.35268        17.30942        10.70294
   C       19.36115        18.18158        11.00652
   C       19.90314        18.22449        12.30137
   C       19.43065        17.39407        13.28013
   H        5.67140         3.04671        -4.31290
   H        4.27005         3.66426        -6.23201
   H        0.53355         0.05198        -4.34150
   H       -0.81632         0.70139        -6.30460
   H        0.03174         2.37736        -7.89542
   H        2.23360         3.42100        -7.54989
   H        2.94732        -0.84481        -0.19824
   H        4.19769        -1.40614         2.06885
   H        7.62815        -1.07661         3.56034
   H        6.28534        -2.11492         4.04706
   H        7.27590        -1.31750         5.27725
   H        4.07412         0.66588         5.24326
   H        5.14015        -0.29567         6.27389
   H        4.17489        -1.08465         5.01974
   H        7.60166         1.34761         6.50572
   H       11.73797         5.91180         9.78995
   H       15.10273         7.65719         9.62346
   H       14.36241         6.70273        10.91373
   H       15.25980         8.17438        11.30674
   H       11.69284         9.23790        11.71592
   H       13.23372         9.05396        12.55308
   H       12.28347         7.62207        12.13293
   H       14.85557        11.09803        11.19662
   H       14.70710        13.91269         8.50453
   H       16.50088        14.08277        14.52601
   H       18.32352        15.65507        14.98721
   H       17.92849        17.26658         9.71224
   H       19.74923        18.84620        10.24921
   H       20.69914        18.92131        12.51868
   H       19.84571        17.42599        14.27720
*
