# ORCA input file
# SCF done       -151.902943134867          0.000263476174
! CAM-B3LYP def2-SVP def2/J RIJCOSX Grid4 TightSCF
%maxcore 5000
%tddft
    Mode sTDDFT
    Ethresh 5.0
    maxcore 5000
end

%pal
  nprocs 6
  end
* xyz 0 1
   C       -0.48986         0.34719         1.36802
   F       -1.24892         0.97497         2.26991
   C        0.32452         1.08258         0.51344
   F        0.36317         2.41350         0.58612
   C        1.09508         0.39761        -0.41971
   F        1.88471         1.07295        -1.25765
   C        1.05126        -0.98779        -0.48361
   F        1.82665        -1.57603        -1.40227
   C        0.24941        -1.76790         0.36885
   C       -0.52394        -1.03760         1.28983
   F       -1.35093        -1.66380         2.13668
   C        0.22527        -3.20901         0.30173
   C       -0.34766        -4.08638         1.20294
   C       -0.18111        -5.41538         0.82028
   C        0.51864        -5.57805        -0.38196
   S        0.98535        -4.05787        -1.04072
   C        0.68684        -6.90696        -0.76429
   C        0.11462        -7.77963         0.14314
   S       -0.64342        -6.94050         1.48831
   C        0.07762        -9.20718         0.10403
   C        0.66449       -10.00249        -0.90492
   C        0.58443       -11.43866        -0.87736
   N        1.15815       -12.15320        -1.86473
   C        1.77703       -11.55116        -2.82596
   C        1.85908       -10.13517        -2.85145
   N        1.32204        -9.41048        -1.92745
   F        2.49525        -9.50366        -3.83671
   F        2.32680       -12.29347        -3.78211
   C       -0.07601       -12.16318         0.14277
   C       -0.66433       -11.36869         1.15459
   C       -0.58063        -9.92844         1.12438
   N       -1.19935        -9.37755         2.16903
   S       -1.81971       -10.53308         3.09078
   N       -1.34249       -11.79352         2.22273
   C       -0.13769       -13.58204         0.13935
   C       -0.76922       -14.37999         1.08363
   C       -0.64247       -15.72822         0.78204
   C        0.08495       -15.98971        -0.38685
   S        0.61863       -14.52624        -1.13179
   C        0.20641       -17.35126        -0.68065
   C       -0.43223       -18.14443         0.24151
   S       -1.18963       -17.19514         1.51494
   C       -0.42806       -19.59314         0.26240
   C       -1.47324       -20.33814         0.72559
   O       -1.46562       -21.67966         0.77541
   C       -0.37258       -22.37125         0.37236
   C       -0.41009       -23.76241         0.47002
   C        0.68222       -24.49861         0.06685
   C        1.81703       -23.86561        -0.43546
   C        1.85286       -22.49394        -0.53434
   C        0.75701       -21.72549        -0.13151
   C        0.79171       -20.25997        -0.23928
   O        1.75411       -19.66684        -0.69198
   C       -2.77847       -19.79587         1.21214
   H       -0.85249        -3.79683         2.10336
   H        1.19577        -7.23515        -1.64906
   H       -1.28449       -13.97625         1.93413
   H        0.73894       -17.74447        -1.52522
   H       -1.29769       -24.23384         0.86129
   H        0.65639       -25.57502         0.14220
   H        2.66637       -24.45417        -0.74587
   H        2.71582       -21.97262        -0.91961
   H       -3.11241       -18.96484         0.59719
   H       -2.68515       -19.44422         2.23876
   H       -3.51838       -20.59234         1.18797
*
