# ORCA input file
# SCF done       -180.733156518107          0.000548807474
! CAM-B3LYP def2-SVP def2/J RIJCOSX Grid4 TightSCF
%maxcore 5000
%tddft
    Mode sTDDFT
    Ethresh 5.0
    maxcore 5000
end

%pal
  nprocs 6
  end
* xyz 0 1
   C       -6.15919         0.71357        -6.52692
   C       -7.41744         1.18769        -6.77045
   F       -7.59161         2.27612        -7.53168
   C       -8.54530         0.54073        -6.22686
   F       -9.76711         1.02843        -6.48139
   C       -8.39928        -0.57346        -5.44899
   C       -7.11585        -1.08799        -5.18164
   C       -5.97421        -0.43214        -5.72702
   C       -4.67570        -0.92669        -5.46733
   C       -4.52615        -2.04555        -4.69112
   C       -5.67117        -2.70288        -4.16438
   C       -6.93677        -2.24429        -4.39013
   C       -5.25100        -3.89470        -3.39875
   O       -5.98991        -4.63636        -2.78615
   C       -3.78281        -3.98065        -3.57421
   C       -3.34007        -2.77615        -4.25776
   C       -2.04909        -2.33823        -4.39290
   C       -0.90818        -2.97972        -3.86401
   N        0.06317        -3.42517        -3.44382
   C       -1.69243        -1.13578        -5.03947
   N       -1.34205        -0.17210        -5.55541
   C       -2.96078        -5.04580        -3.32226
   C       -3.20060        -6.26463        -2.65905
   C       -4.23842        -6.70182        -1.85086
   C       -4.01812        -7.99152        -1.38402
   C       -2.81904        -8.57380        -1.82551
   S       -1.93199        -7.48907        -2.81766
   C       -2.61883        -9.87792        -1.36428
   C       -3.64652       -10.30053        -0.55428
   S       -4.88637        -9.07874        -0.35708
   C       -3.77520       -11.58040         0.10732
   C       -3.11038       -12.70712        -0.41899
   C       -3.18376       -13.94677         0.16991
   C       -3.93811       -14.06131         1.33341
   C       -4.60639       -12.93047         1.86007
   C       -4.55068       -11.69154         1.26273
   O       -5.23834       -13.32345         2.99189
   C       -4.93464       -14.64618         3.10686
   N       -4.18339       -15.12150         2.15667
   C       -5.40982       -15.38912         4.22439
   C       -5.20654       -16.73282         4.44513
   C       -5.76666       -17.13185         5.65906
   C       -6.38801       -16.08951         6.36677
   S       -6.29779       -14.59786         5.50127
   C       -6.89261       -16.47066         7.60626
   C       -6.67727       -17.81404         7.85926
   S       -5.86397       -18.61475         6.52317
   C       -7.05540       -18.58900         8.98111
   C       -7.33110       -18.19279        10.25367
   C       -8.09106       -19.11739        11.14319
   O       -8.33613       -20.28160        10.93195
   C       -8.51483       -18.29234        12.29164
   C       -9.31674       -18.63308        13.34263
   C       -9.60229       -17.66464        14.33095
   C       -9.05804       -16.35355        14.20277
   C       -9.34954       -15.39059        15.18983
   C      -10.13918       -15.71554        16.25681
   C      -10.67526       -17.01317        16.38382
   C      -10.41403       -17.96800        15.44140
   F      -11.44626       -17.30297        17.43980
   F      -10.41208       -14.80071        17.19552
   C       -8.22848       -16.03074        13.10471
   C       -7.95161       -16.99021        12.16768
   C       -7.09768       -16.96358        10.98167
   C       -6.08737       -16.06285        10.76697
   C       -5.09644       -16.20823         9.77543
   N       -4.24215       -16.29793         9.01412
   C       -5.86507       -14.92603        11.57165
   N       -5.65530       -13.97573        12.17984
   H       -5.30635         1.22203        -6.94866
   H       -9.27264        -1.05776        -5.04120
   H       -3.83216        -0.41177        -5.89771
   H       -7.78922        -2.75937        -3.97410
   H       -1.95624        -4.97576        -3.72526
   H       -5.10202        -6.10362        -1.62904
   H       -1.74907       -10.46601        -1.58942
   H       -2.54179       -12.59088        -1.32798
   H       -2.67875       -14.80412        -0.24248
   H       -5.06481       -10.83990         1.67901
   H       -4.67474       -17.36015         3.75578
   H       -7.42273       -15.81523         8.27296
   H       -7.19900       -19.64968         8.79570
   H       -9.72464       -19.62926        13.42085
   H       -8.94366       -14.39420        15.11019
   H      -10.83167       -18.95631        15.55326
   H       -7.83658       -15.02902        13.02959
*
