# ORCA input file
# SCF done       -268.384923281050          0.000979225578
! CAM-B3LYP def2-SVP def2/J RIJCOSX Grid4 TightSCF
%maxcore 5000
%tddft
    Mode sTDDFT
    Ethresh 5.0
    maxcore 5000
end

%pal
  nprocs 6
  end
* xyz 0 1
   C       -8.98549         2.00861        -2.58853
   C       -9.06048         2.46531        -3.87430
   F       -9.38447         3.74173        -4.11798
   C       -8.79882         1.60325        -4.95844
   F       -8.87845         2.07858        -6.20855
   C       -8.46770         0.29529        -4.74136
   C       -8.38362        -0.20562        -3.42772
   C       -8.64450         0.66540        -2.33041
   C       -8.55858         0.18758        -1.00297
   C       -8.22415        -1.12267        -0.77866
   C       -7.97974        -1.98614        -1.87994
   C       -8.04923        -1.55350        -3.17280
   C       -7.66368        -3.34126        -1.38881
   O       -7.37424        -4.28759        -2.09087
   C       -7.77643        -3.27109         0.08779
   C       -8.04573        -1.88601         0.45305
   C       -8.07566        -1.34731         1.71263
   C       -7.82307        -2.02353         2.92624
   N       -7.61514        -2.47514         3.96164
   C       -8.33603         0.01457         1.97991
   N       -8.54310         1.10550         2.27040
   C       -7.71620        -4.28550         1.00322
   C       -7.47973        -5.67057         0.86466
   C       -7.20463        -6.46786        -0.21984
   C       -7.02519        -7.82599         0.10197
   C       -6.77061        -8.88779        -0.79791
   C       -6.76825        -8.71013        -2.23098
   C       -5.95379        -9.31058        -3.15521
   C       -6.25746        -8.95161        -4.47976
   C       -7.31360        -8.09550        -4.58219
   S       -7.94598        -7.69741        -3.02359
   C       -7.92087        -7.51981        -5.80914
   C       -6.55516       -10.13426        -0.22157
   C       -6.62613       -10.37184         1.17467
   C       -6.95562        -9.33068         2.07039
   C       -7.12101        -8.06964         1.50021
   S       -7.50538        -6.60978         2.35636
   C       -7.18401        -9.55816         3.48084
   C       -6.98375        -8.69979         4.52852
   C       -7.43668        -9.20181         5.76302
   C       -7.99306       -10.44136         5.67845
   S       -7.94556       -11.02558         4.05032
   C       -8.58708       -11.27377         6.75491
   C       -6.35174       -11.72308         1.48340
   C       -6.14018       -12.50389         0.38325
   S       -6.23365       -11.60453        -1.10543
   C       -5.86049       -13.91436         0.40207
   C       -5.79845       -14.71309        -0.69372
   C       -5.53545       -16.11292        -0.55423
   C       -5.47022       -16.96261        -1.64345
   C       -5.20584       -18.33358        -1.49532
   N       -4.98506       -19.45354        -1.36534
   C       -5.65907       -16.49828        -2.95496
   N       -5.81215       -16.11092        -4.02572
   C       -5.33393       -16.57482         0.78523
   C       -5.39727       -15.70742         1.82766
   O       -5.66862       -14.38804         1.66007
   C       -5.14652       -16.04985         3.20198
   C       -5.11206       -15.17633         4.25167
   C       -4.74646       -15.78014         5.47633
   C       -4.60064       -15.16188         6.73758
   C       -4.73479       -13.73142         6.91383
   C       -4.33655       -12.72188         6.07965
   C       -4.58590       -11.43535         6.59576
   C       -5.17373       -11.44836         7.82351
   S       -5.44471       -13.07204         8.36668
   C       -5.53546       -10.30199         8.69465
   C       -4.30234       -16.01156         7.79627
   C       -4.15434       -17.41696         7.66656
   C       -4.27763       -18.03014         6.39986
   C       -4.54894       -17.17638         5.33331
   S       -4.76322       -17.68143         3.67743
   C       -4.14815       -19.45532         6.19785
   C       -3.58176       -20.10600         5.13403
   C       -3.67443       -21.50670         5.22139
   C       -4.32402       -21.94046         6.33737
   S       -4.82252       -20.60645         7.32224
   C       -4.61508       -23.33551         6.75482
   C       -3.81924       -18.02143         8.89703
   C       -3.74330       -17.14481         9.94905
   S       -4.01548       -15.49413         9.43002
   C       -3.39324       -17.48075        11.28214
   C       -3.51968       -16.73311        12.40944
   C       -2.67826       -17.04138        13.59877
   O       -2.07465       -18.06482        13.81805
   C       -2.68846       -15.80036        14.40240
   C       -1.97318       -15.50204        15.52616
   C       -2.11936       -14.22616        16.11552
   C       -3.00586       -13.27913        15.52448
   C       -3.13923       -12.00557        16.11350
   C       -2.42869       -11.68778        17.23661
   C       -1.55398       -12.62562        17.82135
   C       -1.40206       -13.86865        17.27388
   F       -0.86889       -12.28609        18.92147
   F       -2.55637       -10.47623        17.79342
   C       -3.74190       -13.61939        14.36671
   C       -3.58794       -14.86339        13.81630
   C       -4.23540       -15.50080        12.67452
   C       -5.44349       -15.14293        12.13898
   C       -6.18732       -15.99450        11.29220
   N       -6.84842       -16.69379        10.66756
   C       -6.10595       -13.93559        12.43405
   N       -6.65977       -12.94662        12.61595
   H       -9.18697         2.68229        -1.77035
   H       -8.27069        -0.35179        -5.58170
   H       -8.76387         0.87351        -0.19767
   H       -7.85210        -2.23221        -3.98865
   H       -7.89299        -4.00015         2.03376
   H       -7.12165        -6.06886        -1.21317
   H       -5.13287        -9.95289        -2.89256
   H       -5.71218        -9.31810        -5.33099
   H       -7.34280        -7.81023        -6.68294
   H       -7.95021        -6.43267        -5.74715
   H       -8.94460        -7.87352        -5.93326
   H       -6.49772        -7.74633         4.43044
   H       -7.36947        -8.64934         6.68270
   H       -8.71518       -10.68055         7.65675
   H       -7.94606       -12.12546         6.98505
   H       -9.55696       -11.66306         6.44883
   H       -6.30679       -12.11774         2.48046
   H       -5.95454       -14.29291        -1.67472
   H       -5.11806       -17.61621         0.96468
   H       -5.35986       -14.13744         4.14583
   H       -3.82333       -12.89081         5.15002
   H       -4.32981       -10.52964         6.07514
   H       -5.43851        -9.37035         8.14343
   H       -4.87473       -10.26457         9.56138
   H       -6.55426       -10.40059         9.06448
   H       -3.07390       -19.60068         4.33281
   H       -3.27544       -22.17174         4.47672
   H       -4.24558       -24.03148         6.00583
   H       -5.68757       -23.48499         6.87629
   H       -4.13911       -23.55983         7.70929
   H       -3.65265       -19.07555         9.02164
   H       -2.87777       -18.42836        11.40464
   H       -1.30273       -16.22854        15.95928
   H       -3.80732       -11.27729        15.68093
   H       -0.72839       -14.57488        17.73331
   H       -4.40324       -12.88526        13.93430
*
