# ORCA input file
# SCF done       -271.965922593581          0.000629408311
! CAM-B3LYP def2-SVP def2/J RIJCOSX Grid4 TightSCF
%maxcore 5000
%tddft
    Mode sTDDFT
    Ethresh 5.0
    maxcore 5000
end

%pal
  nprocs 6
  end
* xyz 0 1
   C       -9.94958         0.87610         8.69356
   C      -11.21657         1.09167         9.15793
   F      -11.50174         2.20530         9.84602
   C      -12.23749         0.14926         8.92155
   F      -13.47092         0.38642         9.38939
   C      -11.97669        -0.99650         8.22399
   C      -10.68058        -1.24817         7.73363
   C       -9.64739        -0.29571         7.97066
   C       -8.33895        -0.52632         7.48771
   C       -8.07146        -1.67710         6.79340
   C       -9.10591        -2.62516         6.57098
   C      -10.38054        -2.42744         7.01701
   C       -8.56749        -3.78292         5.82873
   O       -9.22535        -4.71548         5.41764
   C       -7.11123        -3.53634         5.70723
   C       -6.84558        -2.18719         6.18688
   C       -5.68561        -1.47235         6.04502
   C       -5.51126        -0.15690         6.52582
   N       -5.30607         0.91128         6.89247
   C       -4.52217        -1.90193         5.37028
   N       -3.54491        -2.15463         4.82252
   C       -6.11922        -4.40848         5.35033
   C       -6.16455        -5.75061         4.91650
   C       -7.20528        -6.58073         4.57536
   C       -6.80377        -7.88071         4.21541
   C       -7.63448        -8.96759         3.85664
   C       -9.07696        -8.88695         3.86936
   C       -9.95702        -9.45659         2.98713
   C      -11.30348        -9.21925         3.31451
   C      -11.46403        -8.48870         4.45413
   S       -9.93652        -8.06068         5.14058
   C      -12.72734        -8.05227         5.10248
   C       -6.98190       -10.14839         3.51953
   C       -5.57539       -10.30218         3.55291
   C       -4.74530        -9.22919         3.92908
   C       -5.39056        -8.03472         4.23869
   S       -4.61157        -6.57035         4.74997
   C       -3.30423        -9.34727         4.02621
   C       -2.36036        -8.41469         3.69963
   C       -1.04104        -8.83282         3.96436
   C       -0.96244       -10.07698         4.50745
   S       -2.54132       -10.76965         4.69188
   C        0.24616       -10.83956         4.91420
   C       -5.19000       -11.62379         3.20045
   C       -6.23960       -12.43880         2.94055
   S       -7.77382       -11.64108         3.08765
   C       -6.15125       -13.91135         2.66086
   C       -7.29172       -14.40803         1.76652
   N       -4.90856       -14.12239         1.90754
   N       -4.00219       -14.85271         2.20923
   C       -3.93018       -15.72544         3.39395
   C       -5.03929       -15.45886         4.33921
   C       -6.12631       -14.61528         3.97039
   N       -6.95166       -14.56503         4.97588
   O       -6.42473       -15.34119         5.93300
   N       -5.26022       -15.88545         5.54918
   C       -2.55317       -15.50111         4.03003
   C       -4.04906       -17.11315         2.83146
   C       -4.75760       -18.15531         3.32447
   C       -4.66840       -19.31995         2.51370
   C       -5.25615       -20.57830         2.74948
   C       -6.17925       -20.78809         3.84502
   C       -7.16641       -19.95131         4.28577
   C       -7.91112       -20.48104         5.35753
   C       -7.49942       -21.71860         5.74430
   S       -6.17160       -22.26406         4.77090
   C       -8.03666       -22.57585         6.83186
   C       -4.93737       -21.58042         1.84227
   C       -4.11641       -21.37468         0.70450
   C       -3.53481       -20.11015         0.46733
   C       -3.84331       -19.11015         1.38477
   S       -3.23558       -17.47496         1.33825
   C       -2.65256       -19.88678        -0.65539
   C       -1.67265       -20.71188        -1.13739
   C       -0.98682       -20.17483        -2.24289
   C       -1.44032       -18.94623        -2.61719
   S       -2.72838       -18.41634        -1.58740
   C       -0.97218       -18.08999        -3.73709
   C       -4.04604       -22.52877        -0.10496
   C       -4.77870       -23.58767         0.36734
   S       -5.54801       -23.20697         1.89841
   C       -4.84954       -24.87659        -0.22004
   C       -5.74304       -25.87082         0.02651
   C       -5.39216       -27.28204        -0.28813
   O       -4.49304       -27.66873        -0.99753
   C       -6.33539       -28.09540         0.50937
   C       -6.36299       -29.44857         0.68624
   C       -7.34954       -30.01170         1.52681
   C       -8.29026       -29.15744         2.17258
   C       -9.26687       -29.72667         3.01439
   C       -9.30967       -31.07926         3.20406
   C       -8.38005       -31.92306         2.56397
   C       -7.42019       -31.40183         1.74257
   F       -8.44488       -33.24595         2.76919
   F      -10.23958       -31.61782         4.00447
   C       -8.24290       -27.76011         1.96421
   C       -7.28196       -27.23803         1.14099
   C       -7.01808       -25.86802         0.71339
   C       -7.92636       -24.84320         0.71338
   C       -7.73396       -23.64656        -0.01074
   N       -7.63992       -22.69679        -0.64827
   C       -9.18049       -24.90996         1.35115
   N      -10.20103       -24.91459         1.87665
   H       -9.18033         1.60861         8.88206
   H      -12.76868        -1.70842         8.05178
   H       -7.57963         0.21188         7.68806
   H      -11.14709        -3.16395         6.82972
   H       -5.10523        -4.03943         5.45659
   H       -8.22525        -6.24617         4.58158
   H       -9.64867        -9.98971         2.10609
   H      -12.12776        -9.57911         2.72483
   H      -13.58173        -8.39265         4.52250
   H      -12.76064        -6.96575         5.17751
   H      -12.80250        -8.45767         6.11136
   H       -2.59594        -7.46869         3.24705
   H       -0.17813        -8.22520         3.75817
   H        1.13504       -10.23302         4.75932
   H        0.33959       -11.75495         4.32957
   H        0.18988       -11.12028         5.96565
   H       -4.16883       -11.94967         3.12644
   H       -7.25358       -13.88528         0.81471
   H       -8.24407       -14.21664         2.25499
   H       -7.18870       -15.47693         1.58682
   H       -2.47748       -14.48153         4.40317
   H       -1.78408       -15.66431         3.28002
   H       -2.42080       -16.19446         4.85624
   H       -5.28809       -18.12556         4.25817
   H       -7.38663       -19.00495         3.82508
   H       -8.72823       -19.95935         5.82317
   H       -7.26726       -22.78230         7.57564
   H       -8.38018       -23.53021         6.43374
   H       -8.87113       -22.07711         7.31866
   H       -1.41778       -21.65200        -0.68160
   H       -0.18178       -20.68327        -2.74315
   H       -0.13991       -18.56749        -4.24839
   H       -0.64952       -17.11711        -3.36791
   H       -1.77568       -17.92263        -4.45410
   H       -3.52439       -22.56561        -1.04395
   H       -4.03240       -25.13579        -0.88630
   H       -5.64188       -30.08196         0.19239
   H       -9.98842       -29.09542         3.50907
   H       -6.71576       -32.06114         1.26008
   H       -8.96115       -27.13307         2.46831
*
