# ORCA input file
# SCF done       -216.936141197235          0.000606377110
! CAM-B3LYP def2-SVP def2/J RIJCOSX Grid4 TightSCF
%maxcore 5000
%tddft
    Mode sTDDFT
    Ethresh 5.0
    maxcore 5000
end

%pal
  nprocs 6
  end
* xyz 0 1
   C       -6.46768         3.46081         0.10070
   C       -5.56134         4.48344         0.08342
   F       -5.96766         5.74056        -0.14063
   C       -4.19232         4.23148         0.30176
   F       -3.32504         5.25363         0.28126
   C       -3.74819         2.95982         0.53343
   C       -4.65747         1.88472         0.55804
   C       -6.04236         2.13862         0.34027
   C       -6.97492         1.07652         0.36970
   C       -6.53641        -0.19765         0.61667
   C       -5.15101        -0.44367         0.82440
   C       -4.22668         0.55957         0.79337
   C       -4.93577        -1.89004         1.04249
   O       -3.86377        -2.45241         1.10934
   C       -6.28368        -2.50125         1.01128
   C       -7.25491        -1.46374         0.73507
   C       -8.61738        -1.61184         0.68249
   C       -9.31507        -2.81708         0.90913
   N       -9.96099        -3.74578         1.10666
   C       -9.51641        -0.55661         0.42323
   N      -10.29636         0.25916         0.21279
   C       -6.54103        -3.84603         1.05827
   C       -5.69473        -4.86319         1.53737
   C       -4.67365        -4.82550         2.48557
   O       -4.34645        -3.73574         3.20642
   C       -3.07350        -3.84119         3.82026
   C       -2.89160        -5.20469         4.49781
   C       -3.88851        -5.40650         5.63659
   O       -3.02056        -6.24432         3.53307
   C       -4.08107        -6.08537         2.71228
   C       -4.66079        -7.11434         1.97233
   S       -5.90997        -6.49299         0.94046
   C       -4.37815        -8.51116         2.01196
   C       -4.79320        -9.36078         0.96202
   C       -4.49591       -10.76188         0.94214
   N       -4.94433       -11.51840        -0.07867
   C       -5.62889       -10.97538        -1.03072
   C       -5.90804        -9.58049        -1.02170
   N       -5.49645        -8.82621        -0.05671
   F       -6.60168        -9.01770        -2.00226
   F       -6.07084       -11.76198        -2.00488
   C       -3.74582       -11.39239         1.95891
   C       -3.45136       -10.58174         3.07742
   C       -3.76796        -9.16667         3.10736
   N       -3.50127        -8.63684         4.30054
   S       -2.90824        -9.77112         5.26292
   N       -2.96871       -11.00340         4.24466
   C       -3.38164       -12.76125         1.84934
   C       -2.38289       -13.45894         2.52364
   O       -1.47010       -12.89727         3.34758
   C       -0.35465       -13.74217         3.56715
   C       -0.79990       -15.17370         3.89119
   C       -1.65896       -15.21594         5.15276
   O       -1.50420       -15.71059         2.77435
   C       -2.35486       -14.83188         2.20539
   C       -3.26729       -15.18972         1.22073
   S       -4.20342       -13.79940         0.72786
   C       -3.48163       -16.48998         0.71866
   C       -4.10063       -16.83180        -0.44586
   C       -4.70569       -18.17898        -0.61500
   O       -4.51978       -19.15454         0.07489
   C       -5.63051       -18.03946        -1.76122
   C       -6.53256       -18.93911        -2.25121
   C       -7.34710       -18.56876        -3.34517
   C       -7.21528       -17.26582        -3.90834
   C       -8.03864       -16.90179        -4.99280
   C       -8.94676       -17.78980        -5.49705
   C       -9.07522       -19.07807        -4.94046
   C       -8.29296       -19.46071        -3.88724
   F       -9.97554       -19.92822        -5.45386
   F       -9.72711       -17.44315        -6.52955
   C       -6.26649       -16.35724        -3.38566
   C       -5.48153       -16.74300        -2.33299
   C       -4.41567       -16.04580        -1.62065
   C       -3.66726       -15.01600        -2.12612
   C       -2.46923       -14.56667        -1.53261
   N       -1.45991       -14.21775        -1.11028
   C       -3.95060       -14.36407        -3.34320
   N       -4.13792       -13.80458        -4.32747
   H       -7.51252         3.67056        -0.06726
   H       -2.69649         2.78419         0.69728
   H       -8.01461         1.30031         0.19428
   H       -3.18028         0.34716         0.95205
   H       -7.48334        -4.20125         0.65841
   H       -3.02372        -3.03161         4.54906
   H       -2.30054        -3.69631         3.05591
   H       -1.86602        -5.29832         4.86759
   H       -4.89901        -5.18068         5.30222
   H       -3.63951        -4.75564         6.46967
   H       -3.85266        -6.44284         5.96176
   H        0.19502       -13.30393         4.40025
   H        0.27888       -13.75604         2.67010
   H        0.07642       -15.81966         4.00290
   H       -2.47199       -14.49588         5.08522
   H       -1.04999       -14.97620         6.01957
   H       -2.07798       -16.21103         5.27795
   H       -3.18873       -17.30593         1.37171
   H       -6.62603       -19.91999        -1.81042
   H       -7.95071       -15.92034        -5.43178
   H       -8.40421       -20.45027        -3.47235
   H       -6.19128       -15.37242        -3.81890
*
