# ORCA input file
# SCF done       -196.941206270828          0.000871640273
! CAM-B3LYP def2-SVP def2/J RIJCOSX Grid4 TightSCF
%maxcore 5000
%tddft
    Mode sTDDFT
    Ethresh 5.0
    maxcore 5000
end

%pal
  nprocs 6
  end
* xyz 0 1
   C        2.19285         3.40682        -4.83142
   C        2.86555         4.58220        -4.62321
   C        3.53393         5.29160        -5.64028
   N        4.08017         5.91063        -6.43767
   C        3.03969         5.14903        -3.34354
   N        3.24178         5.60024        -2.30770
   C        2.23747         2.60903        -6.05097
   C        1.90898         1.26136        -5.71923
   C        1.91498         0.27179        -6.65953
   C        2.24300         0.59285        -7.99630
   C        2.55493         1.94122        -8.33618
   C        2.54935         2.94490        -7.34019
   C        2.87293         2.24778        -9.67480
   C        2.88643         1.27093       -10.63286
   C        2.58105        -0.05646       -10.29722
   C        2.26667        -0.38814        -9.00726
   C        1.57852         1.17717        -4.28466
   O        1.30738         0.19450        -3.63406
   C        1.57802         2.59005        -3.80591
   C        0.95421         2.90435        -2.64002
   C        0.45004         4.15288        -2.20164
   C        0.08877         4.46372        -0.90230
   C       -0.44131         5.74460        -0.79481
   C       -0.53035         6.42017        -2.02360
   S        0.07038         5.46045        -3.31705
   C       -1.08984         7.68985        -1.89644
   C       -1.42777         7.98555        -0.56494
   S       -1.04865         6.68925         0.53538
   C       -1.99923         9.24101        -0.40095
   C       -2.10384         9.92494        -1.60184
   S       -1.47327         8.99577        -2.95376
   C       -2.65281        11.21636        -1.84593
   C       -3.25454        12.03943        -0.86527
   C       -3.82941        13.31306        -1.20297
   N       -4.40648        14.05729        -0.23782
   C       -4.43638        13.62728         0.98032
   C       -3.86484        12.37125         1.31309
   N       -3.30600        11.62471         0.41889
   F       -3.88771        11.91964         2.56474
   F       -5.01338        14.38953         1.90144
   C       -3.83461        13.84340        -2.51260
   C       -3.20613        13.03843        -3.48972
   C       -2.63833        11.75664        -3.15171
   N       -2.10875        11.15616        -4.21743
   S       -2.29421        12.09333        -5.50425
   N       -3.05860        13.30720        -4.78899
   C       -4.45454        15.08712        -2.81442
   C       -4.51617        15.69303        -4.06049
   C       -5.23111        16.88159        -4.02449
   C       -5.72627        17.20144        -2.74821
   S       -5.28239        16.01001        -1.57755
   C       -6.46013        18.38733        -2.75780
   C       -6.52517        18.96871        -4.04052
   S       -5.66189        18.04958        -5.24243
   C       -7.26739        20.13797        -4.09812
   C       -7.79404        20.48018        -2.86164
   S       -7.32755        19.32091        -1.60846
   C       -8.59927        21.55480        -2.43343
   C       -9.22933        22.55077        -3.12902
   C      -10.03282        23.58502        -2.49149
   C      -10.06667        23.90218        -1.15819
   C      -10.86431        24.93176        -0.61469
   N      -11.48707        25.75018        -0.10418
   C       -9.30051        23.30107        -0.13682
   N       -8.70762        22.88711         0.75584
   C      -10.76192        24.29518        -3.53570
   C      -10.34325        23.78906        -4.79722
   C       -9.34686        22.72405        -4.59853
   O       -8.76857        22.12788        -5.48446
   C      -10.84246        24.26919        -5.97343
   C      -11.81102        25.29663        -5.94058
   C      -12.24417        25.80351        -4.68146
   C      -11.70449        25.28796        -3.48048
   C      -13.21521        26.82535        -4.65974
   C      -13.73263        27.32453        -5.82400
   C      -13.30424        26.82526        -7.06311
   C      -12.36380        25.83275        -7.12010
   H        1.67311        -0.74507        -6.38819
   H        2.78111         3.96022        -7.62261
   H        3.11109         3.27058        -9.92743
   H        3.13356         1.51563       -11.65506
   H        2.59600        -0.81473       -11.06577
   H        2.03072        -1.40864        -8.74313
   H        0.73453         2.06177        -1.99068
   H        0.23718         3.79205        -0.07698
   H       -2.32868         9.65195         0.53325
   H       -4.06117        15.26837        -4.93486
   H       -7.43577        20.71824        -4.98636
   H       -8.75593        21.55417        -1.36070
   H      -10.50289        23.86779        -6.91675
   H      -12.05796        25.69130        -2.54516
   H      -13.54106        27.20782        -3.70360
   H      -14.47528        28.10778        -5.79662
   H      -13.72317        27.23074        -7.97195
   H      -12.02987        25.44369        -8.07093
*
