# ORCA input file
# SCF done       -249.959754536513          0.000702254899
! CAM-B3LYP def2-SVP def2/J RIJCOSX Grid4 TightSCF
%maxcore 5000
%tddft
    Mode sTDDFT
    Ethresh 5.0
    maxcore 5000
end

%pal
  nprocs 6
  end
* xyz 0 1
   C        4.84682         4.10773        -4.22366
   C        5.48566         3.28493        -3.33120
   C        6.46622         2.33751        -3.69371
   N        7.27086         1.54919        -3.91618
   C        5.26812         3.23910        -1.93868
   N        5.15293         3.12751        -0.80078
   C        5.07365         4.11543        -5.66586
   C        4.20332         5.07474        -6.25641
   C        4.17934         5.30359        -7.60139
   C        5.04720         4.56854        -8.43910
   C        5.92612         3.60961        -7.85833
   C        5.92557         3.39433        -6.46050
   C        6.78992         2.88329        -8.70313
   C        6.78570         3.09169       -10.05562
   C        5.91843         4.03518       -10.62607
   C        5.06774         4.75822        -9.83463
   C        3.40147         5.71656        -5.20382
   O        2.55716         6.57603        -5.36893
   C        3.82873         5.10321        -3.93251
   C        3.35336         5.41565        -2.68909
   C        2.37645         6.35045        -2.28810
   C        2.01339         6.49164        -0.95902
   C        1.02034         7.45455        -0.73163
   C        0.41670         7.81932         0.49899
   C        0.71630         7.11003         1.72110
   C        0.89744         5.76350         1.89682
   C        1.16256         5.40759         3.23152
   C        1.19408         6.47334         4.08018
   S        0.87566         7.95250         3.23879
   C        1.45028         6.48276         5.54328
   C       -0.47930         8.87882         0.45117
   C       -0.83282         9.53714        -0.75535
   C       -0.28225         9.13076        -1.98948
   C        0.65620         8.10709        -1.94105
   S        1.48910         7.45001        -3.32047
   C       -0.69665         9.74601        -3.23272
   C       -1.96150        10.08846        -3.62527
   C       -2.00761        10.67514        -4.90447
   C       -0.78391        10.79116        -5.49005
   S        0.46111        10.15499        -4.46742
   C       -0.44494        11.36456        -6.81871
   C       -1.75070        10.57791        -0.52553
   C       -2.13321        10.71038         0.78799
   S       -1.32662         9.55373         1.81977
   C       -3.10975        11.65362         1.22009
   C       -3.76697        11.84179         2.43320
   N       -3.40758        11.12647         3.60582
   O       -2.22599        10.88274         3.77326
   O       -4.28555        10.80441         4.38276
   C       -4.79458        12.82460         2.40738
   C       -5.62393        13.21627         3.58274
   C       -4.90743        13.40610         1.16144
   S       -3.77891        12.71672         0.02743
   C       -5.78256        14.42556         0.67405
   C       -6.68144        15.22482         1.32196
   C       -7.36398        16.12468         0.46601
   C       -8.36045        17.05797         0.81917
   C       -8.89976        17.10934         2.16207
   C       -9.23343        16.06103         2.97458
   C       -9.75610        16.46424         4.21877
   C       -9.81852        17.81583         4.36729
   S       -9.23474        18.62621         2.95117
   C      -10.30769        18.59834         5.53140
   C       -8.80486        17.89948        -0.19548
   C       -8.35301        17.80454        -1.53985
   C       -7.41441        16.81162        -1.90944
   C       -6.92479        16.02183        -0.87709
   S       -5.73504        14.76309        -1.04710
   C       -7.01248        16.63056        -3.28503
   C       -7.78024        16.72348        -4.41480
   C       -7.06506        16.46144        -5.59786
   C       -5.75092        16.17410        -5.38682
   S       -5.37019        16.20886        -3.69720
   C       -4.69754        15.85828        -6.38606
   C       -8.92687        18.78760        -2.36631
   C       -9.82905        19.59948        -1.72170
   S       -9.98107        19.16353        -0.01904
   C      -10.62051        20.68664        -2.15493
   C      -10.77464        21.27449        -3.38003
   C      -11.64342        22.42239        -3.61232
   C      -12.49638        23.01946        -2.72022
   C      -13.31914        24.12277        -3.03436
   N      -14.01513        25.01856        -3.21127
   C      -12.72433        22.64573        -1.37840
   N      -12.99042        22.42762        -0.28199
   C      -11.47974        22.83645        -5.00168
   C      -10.57885        21.93757        -5.63558
   C      -10.12836        20.92367        -4.66869
   O       -9.38746        19.99476        -4.92325
   C      -10.22914        22.06457        -6.94890
   C      -10.77372        23.12491        -7.70616
   C      -11.67401        24.03385        -7.07959
   C      -12.01829        23.87336        -5.71769
   C      -12.21148        25.09033        -7.84294
   C      -11.87716        25.24260        -9.16099
   C      -10.99014        24.34681        -9.77657
   C      -10.45014        23.31050        -9.06452
   H        3.50625         6.03711        -8.01993
   H        6.60389         2.66048        -6.05573
   H        7.45585         2.15738        -8.26007
   H        7.45121         2.53006       -10.69394
   H        5.92770         4.18620       -11.69522
   H        4.39726         5.48649       -10.26724
   H        3.77480         4.86942        -1.85348
   H        2.48196         5.92010        -0.17778
   H        0.79175         5.04551         1.10333
   H        1.32438         4.39368         3.55185
   H        1.62132         5.46961         5.89895
   H        0.60021         6.90661         6.07713
   H        2.32411         7.09059         5.77657
   H       -2.83774         9.88188        -3.03693
   H       -2.92044        10.99725        -5.37385
   H       -1.35145        11.67086        -7.33543
   H        0.07902        10.63014        -7.42919
   H        0.20713        12.23096        -6.70879
   H       -2.11715        11.22517        -1.30208
   H       -5.43824        12.55889         4.42645
   H       -6.68023        13.15104         3.32800
   H       -5.40088        14.24168         3.87637
   H       -6.83907        15.21906         2.38184
   H       -9.15520        15.03252         2.66980
   H      -10.07917        15.77244         4.97644
   H      -10.62954        17.92620         6.32316
   H      -11.14737        19.22969         5.24198
   H       -9.52234        19.24768         5.91740
   H       -8.83419        16.93179        -4.39979
   H       -7.51382        16.48670        -6.57481
   H       -5.12791        15.82967        -7.38414
   H       -4.23966        14.89364        -6.16926
   H       -3.90971        16.61116        -6.36484
   H       -8.67173        18.92109        -3.40030
   H      -11.20036        21.11906        -1.34797
   H       -9.54293        21.36470        -7.40251
   H      -12.70064        24.58189        -5.27682
   H      -12.89428        25.77735        -7.36493
   H      -12.29458        26.05476        -9.73714
   H      -10.73704        24.48216       -10.81755
   H       -9.76633        22.61740        -9.53264
*
