# ORCA input file
# SCF done       -225.505319101829          0.000481168165
! CAM-B3LYP def2-SVP def2/J RIJCOSX Grid4 TightSCF
%maxcore 5000
%tddft
    Mode sTDDFT
    Ethresh 5.0
    maxcore 5000
end

%pal
  nprocs 6
  end
* xyz 0 1
   C       -3.30054         1.44022         1.61115
   C       -2.55245         2.20229         2.47149
   C       -1.31287         1.80512         3.00948
   N       -0.27693         1.56589         3.44378
   C       -2.96680         3.45490         2.96818
   N       -3.27495         4.45691         3.43536
   C       -3.05940         0.03297         1.30940
   C       -4.26520        -0.53269         0.80097
   C       -4.35163        -1.85305         0.46691
   C       -3.21313        -2.67763         0.61456
   C       -2.00026        -2.11392         1.10598
   C       -1.94301        -0.74494         1.45560
   C       -0.86962        -2.94519         1.23793
   C       -0.93228        -4.27070         0.90400
   C       -2.12734        -4.82551         0.42266
   C       -3.24348        -4.04613         0.28184
   C       -5.29233         0.52014         0.70106
   O       -6.44746         0.40803         0.36058
   C       -4.58635         1.78765         1.04723
   C       -5.15258         2.97309         0.68444
   C       -4.54690         4.23981         0.53054
   C       -3.20575         4.56765         0.41029
   C       -2.96716         5.92738         0.22603
   C       -1.62763         6.49643         0.04732
   C       -0.64051         6.16251         0.96462
   C        0.61733         6.75202         0.86661
   C        0.86272         7.67122        -0.14916
   C       -0.12028         7.98645        -1.08210
   C       -1.36603         7.37553        -1.00017
   O        0.22564         8.91903        -2.01141
   C       -0.74618         9.35605        -2.93006
   O        1.64642         6.51104         1.71166
   C        1.41988         5.68224         2.83044
   C       -4.14893         6.66958         0.20680
   S       -5.53984         5.66182         0.35447
   C       -4.26168         8.08107         0.00670
   C       -3.28884         8.98743         0.47999
   C       -3.16611        10.31807        -0.04161
   N       -2.12353        11.07845         0.36209
   C       -1.29936        10.61544         1.24139
   C       -1.49199         9.33823         1.83595
   N       -2.44978         8.56519         1.45136
   F       -0.71139         8.92115         2.82675
   F       -0.28109        11.39126         1.59803
   C       -4.08713        10.83116        -0.98767
   C       -5.19934        10.00131        -1.25427
   C       -5.28632         8.64396        -0.77423
   N       -6.38265         8.02882        -1.22263
   S       -7.22789         9.05170        -2.12029
   N       -6.24374        10.31432        -2.02169
   C       -3.90250        12.04263        -1.71451
   C       -2.81037        12.89555        -1.70959
   C       -2.89054        13.92999        -2.63976
   C       -1.88110        14.97743        -2.77779
   C       -0.54017        14.63605        -2.76673
   C        0.43301        15.61312        -2.99374
   C        0.04772        16.92345        -3.22188
   C       -1.30619        17.27150        -3.19958
   C       -2.27000        16.30493        -2.96982
   O       -1.56570        18.58844        -3.42780
   C       -2.90389        19.02329        -3.41876
   O        1.71781        15.17777        -2.97731
   C        2.74881        16.11216        -3.18867
   C       -4.06937        13.87249        -3.39279
   S       -5.09043        12.56096        -2.87089
   C       -4.50188        14.70276        -4.45156
   C       -3.69182        15.28563        -5.38769
   C       -4.06452        16.31928        -6.32659
   C       -5.17168        17.12622        -6.23344
   C       -5.47901        18.15512        -7.14567
   N       -5.78519        19.00239        -7.85769
   C       -6.10350        17.06988        -5.17735
   N       -6.86631        17.10547        -4.31917
   C       -2.98577        16.45674        -7.29664
   C       -1.93424        15.57024        -6.92776
   C       -2.32930        14.80487        -5.73309
   O       -1.71353        13.89687        -5.21673
   C       -0.77479        15.49184        -7.64226
   C       -0.61174        16.31063        -8.78277
   C       -1.66373        17.19236        -9.16440
   C       -2.85336        17.25376        -8.40215
   C       -1.49456        17.99483       -10.31084
   C       -0.34247        17.93136       -11.04662
   C        0.69313        17.06382       -10.66941
   C        0.56189        16.27219        -9.56058
   H       -5.27701        -2.26513         0.09283
   H       -1.01064        -0.34133         1.81942
   H        0.04753        -2.51422         1.61184
   H       -0.06082        -4.89932         1.00941
   H       -2.15913        -5.87319         0.16356
   H       -4.16642        -4.46774        -0.08858
   H       -6.19910         2.90900         0.40295
   H       -2.41775         3.83616         0.38542
   H       -0.88810         5.49420         1.77225
   H        1.82450         8.15222        -0.21058
   H       -2.14386         7.58744        -1.71706
   H       -0.26197        10.12591        -3.52832
   H       -1.61538         9.79096        -2.42388
   H       -1.07671         8.54359        -3.58521
   H        2.35585         5.67974         3.38595
   H        1.17551         4.65764         2.53259
   H        0.62192         6.07901         3.46442
   H       -1.98327        12.76366        -1.03844
   H       -0.22697        13.61485        -2.63298
   H        0.75613        17.71136        -3.41556
   H       -3.31722        16.55752        -2.92568
   H       -3.49418        18.52990        -4.19790
   H       -2.86805        20.09238        -3.62094
   H       -3.37771        18.85409        -2.44721
   H        3.67678        15.54692        -3.11883
   H        2.74348        16.89567        -2.42451
   H        2.67723        16.57159        -4.17981
   H       -5.57468        14.83501        -4.53557
   H        0.00896        14.81337        -7.33964
   H       -3.63543        17.92568        -8.71927
   H       -2.29422        18.66243       -10.59648
   H       -0.22307        18.54943       -11.92383
   H        1.59492        17.02497       -11.26208
   H        1.35552        15.60116        -9.26580
*
