# ORCA input file
# SCF done       -225.647799020697          0.000628029254
! CAM-B3LYP def2-SVP def2/J RIJCOSX Grid4 TightSCF
%maxcore 5000
%tddft
    Mode sTDDFT
    Ethresh 5.0
    maxcore 5000
end

%pal
  nprocs 6
  end
* xyz 0 1
   C       12.60522         0.71375         5.77594
   C       14.02170         0.97150         6.15586
   O       14.99775         0.68095         5.49795
   C       13.95615         1.59459         7.48943
   C       12.62155         1.80911         7.83854
   C       11.76176         1.41189         6.72921
   C       10.47202         1.82057         6.52729
   C        9.77229         1.64408         5.31397
   N        9.17491         1.59663         4.33509
   C        9.71703         2.55645         7.46388
   N        9.05091         3.14068         8.19375
   C       12.29011         2.35856         9.08463
   C       13.30072         2.69225         9.94731
   C       14.66155         2.50909         9.61601
   C       15.01097         1.94264         8.35586
   C       16.37028         1.76052         8.02969
   C       17.34476         2.12900         8.91565
   C       17.00621         2.68817        10.15829
   C       15.69526         2.87316        10.50239
   C       12.30867        -0.12716         4.75989
   C       11.03782        -0.75299         4.50106
   C       10.29486        -1.28595         5.51778
   S        8.90877        -2.15068         5.00224
   C        9.27042        -1.76015         3.34702
   C       10.44544        -1.00726         3.21237
   C       10.86078        -0.58330         1.93291
   C       12.05920         0.30742         1.79424
   C       10.14734        -0.97350         0.80852
   C       10.70283        -0.68470        -0.55505
   C        8.93240        -1.68070         0.95159
   C        8.52136        -2.09409         2.23163
   S        7.05816        -3.02562         2.20428
   C        6.97154        -2.83396         0.49181
   C        7.98147        -2.10294        -0.04382
   C        7.95617        -1.74509        -1.46867
   C        7.88659        -2.71385        -2.42794
   C        7.82116        -2.34481        -3.79327
   C        7.76733        -3.10465        -4.94704
   C        7.78740        -4.59080        -5.11589
   C        9.18155        -5.15135        -4.78583
   N       10.16084        -4.59033        -5.70048
   C        6.67044        -5.32320        -4.33717
   N        7.00976        -5.59428        -2.94967
   C        7.74072        -2.17657        -6.05500
   C        7.72180        -2.37440        -7.38421
   C        7.70755        -1.23883        -8.35184
   C        7.74400         0.11490        -7.72141
   C        7.76227         0.29855        -6.38791
   C        7.76679        -0.81149        -5.51148
   C        7.81125        -0.92710        -4.13661
   C        7.83909         0.04454        -3.10929
   C        7.91074        -0.35645        -1.81491
   C        6.47179        -1.39915        -9.20887
   C        6.47408        -1.99753       -10.39599
   C        5.28558        -2.26283       -11.19298
   C        4.09668        -2.59605       -10.61943
   S        2.87993        -3.08857       -11.73317
   C        3.99234        -2.87073       -13.04745
   C        5.23499        -2.36518       -12.63055
   C        6.18236        -1.97551       -13.60579
   C        7.38770        -1.18074       -13.19757
   C        5.97363        -2.29567       -14.93929
   C        6.93527        -1.83944       -15.99548
   C        4.81558        -3.01485       -15.31127
   C        3.78252        -3.18319       -14.37996
   S        2.34089        -3.84900       -15.09274
   C        3.12720        -3.95475       -16.60984
   C        4.43743        -3.55764       -16.59176
   C        5.28296        -3.83317       -17.72501
   C        6.49945        -4.42965       -17.65635
   C        7.06509        -5.06252       -16.43243
   O        6.57081        -5.08645       -15.32365
   C        8.29709        -5.73908       -16.87455
   C        8.47874        -5.54035       -18.24349
   C        7.40669        -4.69968       -18.75823
   C        7.31908        -4.18974       -20.02743
   C        6.31762        -3.30015       -20.46960
   N        5.54974        -2.55889       -20.89456
   C        8.23778        -4.45586       -21.06390
   N        8.94210        -4.63077       -21.95382
   C        9.57356        -6.11712       -18.90443
   C       10.45891        -6.87221       -18.18217
   C       10.30606        -7.08646       -16.79418
   C        9.19615        -6.51033       -16.11132
   C        9.04677        -6.72800       -14.72633
   C        9.95896        -7.48773       -14.04702
   C       11.05298        -8.05905       -14.71576
   C       11.22395        -7.86285       -16.05884
   H       11.26005         2.50645         9.36565
   H       13.06219         3.11225        10.91382
   H       16.61806         1.32969         7.07247
   H       18.38590         1.99207         8.66412
   H       17.79205         2.97187        10.84269
   H       15.43212         3.30347        11.45790
   H       13.14836        -0.45201         4.15578
   H       10.53979        -1.27333         6.56323
   H       12.97579        -0.27147         1.67466
   H       12.15951         0.93535         2.67693
   H       11.95393         0.95820         0.93064
   H       10.48533         0.33717        -0.86557
   H       10.27869        -1.35828        -1.29274
   H       11.78279        -0.81624        -0.55407
   H        6.13717        -3.25263        -0.03632
   H        7.87667        -3.75970        -2.16385
   H        7.60047        -4.79610        -6.17636
   H        9.14085        -6.25606        -4.82369
   H        9.46208        -4.84778        -3.77606
   H        9.97771        -4.89891        -6.64966
   H       11.09530        -4.89166        -5.44914
   H        6.42585        -6.24779        -4.88901
   H        5.78033        -4.68866        -4.34241
   H        7.71373        -6.32175        -2.89021
   H        6.18933        -5.91667        -2.44914
   H        7.69628        -3.36260        -7.82370
   H        8.58385        -1.35130        -9.00783
   H        7.74089         0.95183        -8.40384
   H        7.78446         1.29540        -5.97093
   H        7.79673         1.09338        -3.36538
   H        7.91837         0.36488        -1.01077
   H        5.55995        -1.01163        -8.77868
   H        7.40192        -2.37686       -10.80341
   H        3.87545        -2.62996        -9.57056
   H        7.23322        -0.71700       -12.22821
   H        7.58734        -0.38847       -13.91582
   H        8.27375        -1.81457       -13.15487
   H        7.24485        -0.81202       -15.81413
   H        6.47610        -1.87791       -16.97932
   H        7.83270        -2.45965       -16.00503
   H        2.60769        -4.40045       -17.43676
   H        4.84721        -3.63146       -18.69584
   H        9.71612        -5.97787       -19.96323
   H       11.30460        -7.32563       -18.67884
   H        8.19998        -6.28801       -14.22350
   H        9.84196        -7.65542       -12.98654
   H       11.76016        -8.65714       -14.16006
   H       12.06522        -8.30084       -16.57635
*
