# ORCA input file
# SCF done       -187.291250518638          0.000587237383
! CAM-B3LYP def2-SVP def2/J RIJCOSX Grid4 TightSCF
%maxcore 5000
%tddft
    Mode sTDDFT
    Ethresh 5.0
    maxcore 5000
end

%pal
  nprocs 6
  end
* xyz 0 1
   C       19.71337         0.47244        -6.30725
   C       20.66027         0.98590        -7.14972
   F       21.12590         0.23166        -8.15939
   C       21.17296         2.28275        -7.00379
   C       20.70967         3.06672        -5.98437
   C       19.73134         2.58894        -5.08794
   C       19.22640         1.26487        -5.24965
   C       18.25445         0.75883        -4.35550
   C       17.80080         1.55440        -3.33785
   C       18.29331         2.88516        -3.19430
   C       19.23826         3.39478        -4.03832
   C       17.61913         3.54089        -2.05935
   O       17.80813         4.64536        -1.61048
   C       16.58077         2.56280        -1.61227
   C       16.84883         1.29501        -2.26289
   C       16.46588         0.06337        -1.80402
   C       15.77194        -0.13015        -0.58969
   N       15.27190        -0.33392         0.42290
   C       16.81335        -1.14782        -2.43850
   N       17.06397        -2.15079        -2.93598
   C       15.55603         2.96993        -0.82369
   C       14.31571         2.31528        -0.59804
   C       13.59031         1.41982        -1.51794
   N       12.43429         1.02750        -1.07899
   C       12.29507         1.59200         0.15619
   C       13.46040         2.42926         0.47080
   C       13.30100         3.04499         1.76531
   S       14.37592         4.06534         2.47884
   C       12.01768         2.58294         2.22321
   C       11.42732         1.68265         1.21124
   N       10.20123         1.23778         1.61357
   C        9.98865         1.79274         2.76517
   C       11.07815         2.66672         3.23202
   C       11.05237         3.39209         4.44401
   S        9.61712         3.33631         5.47060
   C       10.36451         4.40667         6.58041
   N        9.93149         4.92571         7.71906
   C       10.82591         5.70347         8.25701
   S       12.34716         5.84568         7.32649
   C       11.66705         4.77594         6.16561
   C       12.04979         4.20200         4.96147
   C       10.66068         6.39378         9.47506
   C       11.65120         7.27151        10.10661
   N       11.27045         7.77244        11.24321
   C       10.01848         7.28005        11.46389
   C        9.59398         6.41358        10.35011
   C        8.28455         5.87772        10.60776
   S        7.37731         4.87508         9.67852
   C        7.93300         6.42379        11.89704
   C        9.01702         7.28303        12.40120
   N        8.70807         7.76347        13.63789
   C        7.56889         7.22392        13.95142
   C        7.00745         6.34935        12.90844
   C        5.76739         5.65469        12.97177
   C        5.20547         5.11801        14.08201
   C        3.75000         4.78040        14.11932
   O        3.00241         4.71135        13.17428
   C        3.43459         4.62236        15.55100
   C        2.22071         4.41697        16.14239
   C        2.14781         4.31028        17.54882
   C        3.34034         4.42900        18.32209
   C        3.25934         4.32789        19.72450
   C        2.04346         4.11395        20.31249
   C        0.86042         3.99181        19.56983
   C        0.92041         4.09019        18.20763
   F        1.96393         4.01519        21.64991
   C        4.58491         4.63724        17.68399
   C        4.63263         4.72386        16.31839
   C        5.75702         4.88483        15.40325
   C        7.07161         4.63103        15.69104
   C        8.07908         4.50566        14.71051
   N        8.91405         4.31819        13.94577
   C        7.54635         4.35167        16.99021
   N        7.97443         4.13476        18.03216
   H       19.34472        -0.53164        -6.44751
   H       21.91985         2.63290        -7.69845
   H       21.08875         4.06878        -5.85185
   H       17.88478        -0.24371        -4.50337
   H       19.60507         4.40156        -3.90576
   H       15.67651         3.94149        -0.35231
   H       13.92563         1.13610        -2.50058
   H        9.08078         1.60659         3.31273
   H       12.99563         4.35572         4.47342
   H       12.61739         7.50586         9.69387
   H        7.08390         7.46564        14.88168
   H        5.19042         5.59150        12.05446
   H        1.32640         4.33546        15.54299
   H        4.15006         4.41311        20.32713
   H       -0.06954         3.82280        20.08905
   H        0.02287         3.99919        17.61472
   H        5.47077         4.73048        18.29224
*
