# ORCA input file
# SCF done       -218.836908432555          0.000334889977
! CAM-B3LYP def2-SVP def2/J RIJCOSX Grid4 TightSCF
%maxcore 5000
%tddft
    Mode sTDDFT
    Ethresh 5.0
    maxcore 5000
end

%pal
  nprocs 6
  end
* xyz 0 1
   C       -4.72886         5.76937         1.49588
   C       -4.82167         6.42532         0.29225
   C       -5.57783         5.95843        -0.79913
   N       -6.16135         5.61088        -1.72530
   C       -4.24304         7.68715         0.05667
   N       -3.81468         8.73233        -0.15263
   C       -5.55007         4.63028         1.89463
   C       -5.57105         4.56853         3.31871
   C       -6.29955         3.62621         3.98404
   C       -7.04272         2.67930         3.24233
   C       -7.01082         2.72514         1.81883
   C       -6.25332         3.71892         1.15594
   C       -7.75050         1.77068         1.09213
   C       -8.49047         0.81788         1.73803
   C       -8.52284         0.77450         3.13956
   C       -7.81454         1.68554         3.87542
   C       -4.70480         5.63139         3.86373
   O       -4.51305         5.91710         5.02439
   C       -4.05274         6.24747         2.67710
   C       -2.95044         7.03707         2.85562
   C       -1.92403         7.34978         1.95081
   S       -1.60384         6.42768         0.51656
   C       -0.23249         7.37775         0.08013
   C        0.01589         8.36601         1.04237
   C       -0.94104         8.34815         2.10621
   C       -0.84641         9.28232         3.14497
   C        0.19828        10.17543         3.13525
   N        0.30931        11.13855         4.19924
   O       -0.51336        11.09328         5.08966
   O        1.22135        11.93718         4.14277
   C        1.18433        10.16293         2.12673
   C        1.09951         9.27002         1.09950
   C        0.45460         7.10655        -1.15239
   C        1.00358         8.12613        -1.90052
   C        1.63911         7.83648        -3.12193
   C        2.25897         8.67550        -4.04451
   C        2.46706        10.13897        -3.81658
   C        3.67079        10.35392        -2.86276
   N        4.88796         9.74623        -3.38027
   C        2.56715        11.03857        -5.05965
   N        3.83599        10.94243        -5.77343
   C        2.72605         7.82842        -5.11466
   C        3.36778         8.11878        -6.26322
   C        3.79194         7.05541        -7.20972
   C        3.41374         5.65928        -6.80503
   C        2.74438         5.39394        -5.66895
   C        2.37164         6.44004        -4.79005
   C        1.70155         6.45718        -3.58356
   C        1.10745         5.43684        -2.80569
   C        0.50072         5.75677        -1.63625
   C        5.27880         7.08802        -7.43393
   C        6.12890         7.73491        -6.62306
   C        7.54101         7.78464        -6.80566
   S        8.34660         7.01967        -8.11343
   C        9.91204         7.59245        -7.59702
   C        9.79337         8.36002        -6.41259
   C        8.44414         8.46924        -5.96415
   C        8.14315         9.18880        -4.80305
   C        9.17567         9.77675        -4.10763
   N        8.88791        10.49879        -2.90283
   O        7.74933        10.44364        -2.46976
   O        9.78656        11.11778        -2.37761
   C       10.51239         9.68539        -4.54556
   C       10.81985         8.98876        -5.68072
   C       11.13044         7.36246        -8.23884
   C       11.42677         6.65500        -9.37926
   C       12.74694         6.50899        -9.95949
   C       13.92426         7.04388        -9.49784
   C       15.17450         6.86130       -10.12478
   N       16.22223         6.75486       -10.58211
   C       14.06882         7.84413        -8.34697
   N       14.26157         8.50052        -7.42298
   C       12.61112         5.67818       -11.15249
   C       11.24051         5.31733       -11.30040
   C       10.46663         5.91880       -10.20599
   O        9.26239         5.82082       -10.02470
   C       10.80531         4.53403       -12.32970
   C       11.73960         4.06707       -13.28172
   C       13.11117         4.42643       -13.14467
   C       13.53186         5.23798       -12.06504
   C       14.03435         3.95896       -14.10131
   C       13.62453         3.17258       -15.14397
   C       12.27424         2.81763       -15.27681
   C       11.35152         3.25561       -14.36538
   H       -6.31133         3.60207         5.06358
   H       -6.23976         3.72840         0.07705
   H       -7.72538         1.81077         0.01293
   H       -9.05595         0.09278         1.17198
   H       -9.11161         0.01595         3.63343
   H       -7.83584         1.65701         4.95509
   H       -2.81093         7.39383         3.87177
   H       -1.56826         9.31158         3.94624
   H        1.99886        10.86640         2.19829
   H        1.86870         9.23293         0.34574
   H        0.88371         9.15195        -1.58823
   H        1.58549        10.49720        -3.27029
   H        3.39331         9.95915        -1.87253
   H        3.84843        11.42771        -2.75609
   H        4.80220         8.73454        -3.33896
   H        5.67973        10.01955        -2.80428
   H        2.37572        12.06661        -4.71258
   H        1.76278        10.77396        -5.75657
   H        4.58778        10.83457        -5.09642
   H        3.99687        11.78933        -6.30706
   H        3.62803         9.14336        -6.50576
   H        3.31613         7.26756        -8.18101
   H        3.71497         4.87055        -7.47696
   H        2.48181         4.37765        -5.41214
   H        1.13683         4.41467        -3.15233
   H        0.04102         4.99058        -1.02882
   H        5.64987         6.52078        -8.27681
   H        5.73652         8.28340        -5.77802
   H        7.12766         9.29493        -4.45475
   H       11.27883        10.17246        -3.96332
   H       11.84735         8.92584        -6.00262
   H       11.96898         7.83106        -7.74344
   H        9.76097         4.27348       -12.41804
   H       14.57763         5.48972       -11.99060
   H       15.07323         4.23460       -13.99449
   H       14.33954         2.81977       -15.87192
   H       11.96818         2.19591       -16.10483
   H       10.31008         2.98569       -14.46308
*
