# ORCA input file
# SCF done       -180.414761561549          0.000858556711
! CAM-B3LYP def2-SVP def2/J RIJCOSX Grid4 TightSCF
%maxcore 5000
%tddft
    Mode sTDDFT
    Ethresh 5.0
    maxcore 5000
end

%pal
  nprocs 6
  end
* xyz 0 1
   C       16.47780        -7.24123         4.66451
   C       17.60331        -7.87714         4.22031
   F       18.71367        -7.86391         4.97866
   C       17.65128        -8.55068         2.99157
   C       16.53307        -8.57340         2.20582
   C       15.34504        -7.93153         2.61315
   C       15.31582        -7.25384         3.86791
   C       14.13522        -6.60733         4.29948
   C       13.02521        -6.63135         3.49759
   C       13.06379        -7.29889         2.23842
   C       14.18823        -7.94038         1.80288
   C       11.76324        -7.14442         1.55814
   O       11.40939        -7.62352         0.50913
   C       10.98888        -6.19646         2.42185
   C       11.68927        -6.08429         3.69233
   C       11.13135        -5.72793         4.88364
   C        9.75145        -5.48470         5.06829
   N        8.64681        -5.39667         5.37195
   C       11.83385        -5.63905         6.10237
   N       12.34570        -5.51229         7.12247
   C        9.96699        -5.48913         1.90036
   C        9.35288        -4.28178         2.42222
   N        8.28253        -3.84577         1.76049
   C        7.73282        -2.72241         2.19209
   C        8.26054        -1.98812         3.23783
   C        9.40016        -2.50928         3.87497
   N        9.91500        -3.67186         3.45784
   C       10.07006        -1.89680         4.98871
   C        9.79210        -0.67121         5.49773
   C       10.45793        -0.10857         6.60415
   C       10.17062         1.12945         7.11347
   C       10.77314         1.76210         8.23385
   C       10.27945         2.99644         8.51541
   C        9.24807         3.41863         7.64204
   S        8.93811         2.18218         6.43591
   C        8.53838         4.59553         7.63835
   C        8.72696         5.74167         8.45299
   C        7.88590         6.76212         8.15189
   C        6.96521         6.47188         7.10221
   S        7.20455         4.84513         6.51869
   C        6.02153         7.28136         6.55355
   C        5.13317         6.80157         5.53725
   N        4.28817         7.67569         4.97467
   C        3.47178         7.20585         4.05574
   C        3.43393         5.86314         3.70097
   C        4.32701         5.00807         4.35828
   N        5.19294         5.50270         5.24210
   C        4.27678         3.57299         4.15396
   C        5.02445         2.73518         4.89506
   C        4.97257         1.31306         4.87818
   C        5.46153         0.53080         5.87486
   C        5.75831        -0.91635         5.66148
   O        5.35198        -1.60692         4.75600
   C        6.71685        -1.26904         6.72568
   C        7.41141        -2.43151         6.91034
   C        8.34035        -2.51471         7.97188
   C        8.52339        -1.39635         8.83581
   C        9.48114        -1.47512         9.86476
   C       10.22180        -2.61591        10.00564
   C       10.05245        -3.73019         9.17226
   C        9.11345        -3.67501         8.17971
   F       11.15071        -2.67967        10.97678
   C        7.76460        -0.22042         8.64479
   C        6.88510        -0.15255         7.59886
   C        6.00163         0.92150         7.16319
   C        5.63229         2.01244         7.90457
   C        4.51865         2.83216         7.61399
   N        3.57573         3.47268         7.48383
   C        6.27471         2.40113         9.09738
   N        6.80867         2.79713        10.03361
   H       16.47674        -6.73523         5.61728
   H       18.56793        -9.03450         2.69381
   H       16.54566        -9.08521         1.25539
   H       14.13831        -6.09605         5.24964
   H       14.19626        -8.44603         0.84894
   H        9.60473        -5.78649         0.92351
   H        6.84178        -2.40141         1.66943
   H        7.79999        -1.06970         3.55722
   H       10.86159        -2.48801         5.42947
   H        9.02000        -0.06074         5.04627
   H       11.23422        -0.68723         7.08605
   H       11.55313         1.27325         8.79055
   H       10.61145         3.61314         9.33097
   H        9.48217         5.78266         9.21762
   H        7.87925         7.71872         8.64376
   H        5.90399         8.30298         6.87598
   H        2.80988         7.93001         3.59746
   H        2.73509         5.49018         2.97054
   H        3.53608         3.20632         3.45669
   H        5.72731         3.18573         5.57859
   H        4.57503         0.80962         4.00411
   H        7.27543        -3.27510         6.24973
   H        9.63043        -0.63878        10.53006
   H       10.66742        -4.60275         9.32472
   H        8.95334        -4.52023         7.52918
   H        7.91874         0.61166         9.31385
*
