# ORCA input file
# SCF done       -171.724457476818          0.000405563251
! CAM-B3LYP def2-SVP def2/J RIJCOSX Grid4 TightSCF
%maxcore 5000
%tddft
    Mode sTDDFT
    Ethresh 5.0
    maxcore 5000
end

%pal
  nprocs 6
  end
* xyz 0 1
   C       -6.19811        -4.34243        -3.79931
   C       -5.42899        -3.16406        -3.88210
   C       -4.01017        -3.22591        -3.93045
   C       -3.52032        -4.47095        -4.43350
   C       -4.27525        -5.62004        -4.30915
   C       -5.59827        -5.57069        -3.86786
   C       -2.43816        -4.52017        -5.43086
   O       -1.99283        -5.56088        -5.87555
   N       -0.92208        -2.67319        -3.05374
   C        0.37756        -2.12855        -2.68950
   C       -1.81054        -1.77903        -3.60476
   O       -1.39780        -0.67050        -3.89238
   C       -3.28023        -2.04335        -3.65158
   C       -3.99190        -0.87443        -3.40188
   C       -5.35288        -0.76249        -3.66124
   C       -6.04799        -1.89159        -4.02098
   N       -7.28160        -1.85188        -4.65848
   C       -7.52769        -2.54946        -5.81061
   S       -9.19834        -2.71800        -6.26741
   C       -8.73622        -3.72801        -7.59891
   N       -9.74239        -4.20394        -8.44066
   O       -9.41443        -4.91507        -9.37319
   O      -10.88542        -3.86901        -8.17377
   C       -7.38311        -3.92336        -7.66507
   C       -6.66013        -3.23436        -6.67265
   C       -5.19933        -3.30792        -6.67770
   C       -4.34908        -2.27217        -6.59032
   C       -2.90874        -2.29657        -6.55355
   C       -2.04223        -3.20567        -6.02786
   C       -0.62012        -3.00303        -6.13531
   C        0.33738        -3.72266        -5.50821
   C        0.18312        -4.66850        -4.43708
   S       -0.97925        -4.36014        -3.12340
   C        0.96533        -5.77958        -4.30381
   C        1.89365        -6.30493        -5.24934
   C        2.54684        -7.41292        -4.83450
   C        2.16424        -7.86628        -3.53438
   S        0.89893        -6.81697        -2.88933
   C        2.58511        -8.93362        -2.80875
   N        3.64308        -9.76371        -3.10721
   C        4.84550        -9.42115        -3.63470
   S        5.35949        -7.76612        -3.75661
   C        6.93604        -8.30636        -4.25566
   N        7.87537        -7.32615        -4.56524
   O        8.98350        -7.68666        -4.92309
   O        7.51049        -6.16454        -4.45181
   C        7.05243        -9.67018        -4.30244
   C        5.85939       -10.33268        -3.96626
   C        5.74907       -11.77104        -3.95998
   C        4.62397       -12.48789        -4.12050
   C        4.53569       -13.93513        -4.08954
   C        3.36891       -14.55184        -4.58171
   C        3.21717       -15.91563        -4.57826
   C        4.23097       -16.73059        -4.06581
   C        5.40539       -16.13666        -3.55592
   C        5.53779       -14.74609        -3.57687
   C        6.41058       -16.99827        -3.03041
   C        6.25028       -18.34798        -3.01725
   C        5.03734       -18.98884        -3.54349
   O        4.81057       -20.17749        -3.56987
   N        4.10910       -18.08838        -4.03818
   C        7.25825       -19.18434        -2.48721
   N        8.09256       -19.83481        -2.04714
   H       -7.26460        -4.25691        -3.65562
   H       -3.84384        -6.54613        -4.65984
   H       -6.16206        -6.47786        -3.71968
   H        1.02153        -2.01684        -3.56482
   H        0.84147        -2.80473        -1.97518
   H        0.23474        -1.14790        -2.23916
   H       -3.43798         0.01152        -3.13312
   H       -5.82536         0.20799        -3.66323
   H       -7.93573        -1.11990        -4.41847
   H       -6.92375        -4.51765        -8.43466
   H       -4.80551        -4.30054        -6.85666
   H       -4.76355        -1.27060        -6.55447
   H       -2.45266        -1.39075        -6.93949
   H       -0.30149        -2.24193        -6.83511
   H        1.36396        -3.56351        -5.81744
   H        2.03093        -5.84395        -6.21054
   H        3.25456        -7.95158        -5.43782
   H        2.04680        -9.19620        -1.90878
   H        3.61481       -10.69098        -2.69780
   H        7.96248       -10.16347        -4.59229
   H        6.69583       -12.28266        -3.85637
   H        3.69498       -11.98467        -4.35614
   H        2.57866       -13.93201        -4.97952
   H        2.31676       -16.36883        -4.96581
   H        6.43827       -14.31444        -3.16838
   H        7.31662       -16.55930        -2.63516
   H        3.26201       -18.50560        -4.40799
*
