# ORCA input file
# SCF done       -201.534416203721          0.000948083055
! CAM-B3LYP def2-SVP def2/J RIJCOSX Grid4 TightSCF
%maxcore 5000
%tddft
    Mode sTDDFT
    Ethresh 5.0
    maxcore 5000
end

%pal
  nprocs 6
  end
* xyz 0 1
   C      -14.10088         0.32539         2.65470
   C      -13.33988        -0.80190         2.48201
   C      -13.72743        -2.08731         2.90836
   N      -14.00868        -3.14629         3.25053
   C      -12.14350        -0.79247         1.73781
   N      -11.22404        -0.83819         1.05170
   C      -15.47459         0.38910         3.12839
   C      -15.98002         1.68516         2.85524
   C      -17.26784         2.05070         3.16132
   C      -18.09202         1.09492         3.76614
   C      -17.57410        -0.19356         4.04026
   C      -16.27220        -0.56610         3.72812
   S      -18.76055        -1.21165         4.79756
   C      -19.92164         0.08743         4.73397
   C      -19.44704         1.22627         4.17536
  Br      -21.64961        -0.18163         5.41110
   C      -14.92144         2.51228         2.23770
   O      -15.01194         3.67769         1.91045
   C      -13.72058         1.65075         2.21434
   C      -12.43567         2.10808         2.10352
   C      -12.02490         3.31400         1.49680
   S      -10.62718         4.14706         2.12035
   C      -10.63908         5.28573         0.80574
   C      -11.69516         5.02098        -0.06311
   C      -12.47267         3.91827         0.32697
   C      -13.55907         3.38027        -0.53497
   C      -13.30646         3.76836        -1.98562
   C      -13.21007         5.28363        -2.08642
   C      -12.01998         5.84184        -1.28307
   C      -12.40693         7.22296        -0.80539
   O      -11.85673         8.24655        -1.09731
   C       -9.58608         6.24408         0.81905
   C       -9.25506         7.14261        -0.13406
   N       -8.22158         8.01554         0.02529
   C       -7.94293         9.01101        -0.84476
   S       -8.48512         8.91048        -2.49295
   C       -7.67502        10.40540        -2.84666
   N       -7.76116        10.90303        -4.15163
   O       -7.19929        11.95536        -4.39467
   O       -8.39452        10.23596        -4.95194
   C       -7.04354        10.94788        -1.76434
   C       -7.20359        10.18404        -0.58680
   C       -6.74050        10.66566         0.67433
   C       -7.05082        10.16936         1.90080
   C       -6.53779        10.65782         3.11677
   C       -6.67246         9.95458         4.28608
   C       -6.11218        10.22907         5.55765
   C       -6.20767         9.19908         6.44428
   C       -6.84410         8.05108         5.91424
   S       -7.44656         8.37244         4.31518
   C       -6.85902         6.76459         6.42006
   C       -6.22699         6.26483         7.57635
   C       -6.15317         4.90413         7.60729
   C       -6.69796         4.26459         6.46750
   S       -7.46789         5.43961         5.44197
   C       -6.65458         2.89880         6.23457
   C       -7.01691         2.15292         5.12309
   C       -7.25658         2.42824         3.78100
   C       -6.94709         3.48405         2.88156
   C       -6.08775         4.56369         3.07113
   C       -6.16750         5.71403         2.28143
   N       -6.31845         6.70701         1.71317
   C       -5.08314         4.58455         4.05120
   N       -4.22310         4.59867         4.81346
   C       -7.62175         3.21245         1.61103
   C       -8.30426         1.97606         1.70716
   C       -8.07190         1.41852         3.05421
   O       -8.49988         0.37727         3.50335
   C       -9.03549         1.44539         0.67431
   C       -9.10762         2.18441        -0.51333
   C       -8.39204         3.39665        -0.61474
   C       -7.62536         3.91406         0.42263
   S       -8.60961         4.14262        -2.16902
   C       -9.64139         2.82180        -2.65988
   C       -9.81875         1.87759        -1.70661
  Br      -10.37765         2.82958        -4.39013
   H      -17.63151         3.04205         2.94072
   H      -15.91510        -1.55643         3.95842
   H      -20.02726         2.12311         4.05708
   H      -11.64382         1.52071         2.55762
   H      -14.51342         3.80074        -0.20176
   H      -13.62529         2.29585        -0.41664
   H      -14.12077         3.40967        -2.61539
   H      -12.38195         3.30860        -2.33355
   H      -14.13998         5.71347        -1.70529
   H      -13.10269         5.59123        -3.12680
   H      -11.13905         5.90354        -1.92987
   H      -13.28600         7.21076        -0.13468
   H       -8.96958         6.21080         1.70939
   H       -9.81123         7.26873        -1.04755
   H       -7.56813         7.83512         0.79726
   H       -6.51005        11.88013        -1.81386
   H       -6.10185        11.53801         0.62059
   H       -7.72331         9.33025         1.99462
   H       -5.95832        11.57067         3.12664
   H       -5.62147        11.16403         5.76340
   H       -5.80352         9.21450         7.44017
   H       -5.80769         6.91377         8.32344
   H       -5.66524         4.33990         8.38146
   H       -6.33053         2.31999         7.09212
   H       -7.19656         1.10108         5.33954
   H       -9.54641         0.49944         0.77475
   H       -7.07595         4.82805         0.27764
   H      -10.41934         0.99499        -1.83068
*
