# ORCA input file
# SCF done       -207.685231968863          0.000790472221
! CAM-B3LYP def2-SVP def2/J RIJCOSX Grid4 TightSCF
%maxcore 5000
%tddft
    Mode sTDDFT
    Ethresh 5.0
    maxcore 5000
end

%pal
  nprocs 6
  end
* xyz 0 1
   C      -14.72612         5.47649         1.13416
   C      -15.52198         6.09887         2.05916
   C      -16.87768         5.77663         2.27861
   N      -17.98098         5.55106         2.50055
   C      -15.10856         7.16206         2.89042
   N      -14.85536         8.04393         3.58014
   C      -15.15133         4.44902         0.19221
   C      -14.07066         4.15012        -0.67388
   C      -14.16338         3.21880        -1.67977
   C      -15.38284         2.55433        -1.84445
   C      -16.45642         2.85672        -0.97234
   C      -16.36117         3.79505         0.04791
   S      -17.86731         1.91466        -1.34609
   C      -17.00962         1.14022        -2.65202
   C      -15.73166         1.56311        -2.80183
  Br      -17.88032        -0.15385        -3.69257
   C      -12.89523         4.95576        -0.29557
   O      -11.77915         4.85600        -0.76120
   C      -13.33678         5.78828         0.85402
   C      -12.50185         6.54583         1.61701
   C      -11.19579         6.95522         1.21404
   C      -10.14486         7.03270         2.14870
   C       -8.79351         7.29540         1.73330
   N       -7.78304         7.25914         2.61273
   C       -8.05705         7.01444         3.87831
   C       -9.40895         6.79789         4.30172
   N      -10.40020         6.79125         3.44760
   C       -9.66886         6.57770         5.67924
   N       -9.81917         6.40215         6.80063
   C       -7.00447         6.96293         4.81849
   N       -6.17084         6.91587         5.60463
   C       -8.45805         7.55290         0.37506
   C       -9.52940         7.62465        -0.53098
   C      -10.87983         7.32815        -0.11051
   N      -11.74515         7.50237        -1.10707
   S      -10.96127         7.94020        -2.43092
   N       -9.47790         7.96659        -1.81814
   N       -7.13126         7.67533         0.11886
   C       -6.38510         7.80483        -0.99669
   S       -7.01073         8.09049        -2.58522
   C       -5.38576         8.05211        -3.20348
   N       -5.21615         8.24597        -4.58303
   O       -4.08497         8.22019        -5.02692
   O       -6.22939         8.42754        -5.23419
   C       -4.42727         7.82100        -2.25945
   C       -4.97321         7.67797        -0.96667
   C       -4.22809         7.41364         0.21689
   C       -2.94685         6.94565         0.24213
   C       -2.20640         6.64146         1.39902
   C       -2.46047         6.97538         2.71035
   C       -1.69266         6.52980         3.81638
   C       -2.09344         7.02437         5.02012
   C       -3.18361         7.91687         4.93432
   S       -3.71669         8.06204         3.28109
   C       -3.77170         8.63453         5.96117
   C       -3.51357         8.52058         7.34435
   C       -4.23104         9.39146         8.10762
   C       -5.07620        10.24737         7.36356
   S       -4.95757         9.87836         5.66062
   C       -5.82646        11.29039         7.86389
   C       -6.60246        12.13747         7.07449
   C       -7.21511        13.30864         7.45330
   C       -7.05234        14.13989         8.61630
   C       -5.93092        14.24465         9.40618
   C       -5.82529        15.11518        10.50894
   N       -5.69235        15.78594        11.43160
   C       -4.70866        13.59439         9.14437
   N       -3.67262        13.13411         8.95928
   C       -8.20236        15.04097         8.67195
   C       -8.94103        14.90835         7.46863
   C       -8.31784        13.86240         6.63180
   O       -8.64966        13.49986         5.52410
   C      -10.05397        15.66642         7.19983
   C      -10.46371        16.59156         8.16677
   C       -9.72907        16.70402         9.37068
   C       -8.59807        15.94184         9.64057
   S      -10.41213        17.90119        10.42754
   C      -11.65672        18.23384         9.25236
   C      -11.56765        17.48680         8.12646
  Br      -12.95134        19.53935         9.62137
   H      -13.32164         3.01081        -2.32161
   H      -17.20464         3.98492         0.69044
   H      -15.06132         1.19146        -3.55517
   H      -12.78675         6.82374         2.62360
   H       -6.60533         7.57730         0.99365
   H       -3.37969         7.77932        -2.49393
   H       -4.73555         7.54371         1.16218
   H       -2.46270         6.71530        -0.69634
   H       -1.30302         6.06466         1.24485
   H       -0.86818         5.85168         3.68425
   H       -1.61978         6.79386         5.95669
   H       -2.82367         7.79689         7.73823
   H       -4.16880         9.46154         9.17860
   H       -5.79225        11.44125         8.93337
   H       -6.80422        11.82385         6.05420
   H      -10.59218        15.55242         6.27202
   H       -8.07296        16.06058        10.57378
   H      -12.25088        17.56265         7.30041
*
