# ORCA input file
# SCF done       -190.870053856410          0.000994259651
! CAM-B3LYP def2-SVP def2/J RIJCOSX Grid4 TightSCF
%maxcore 5000
%tddft
    Mode sTDDFT
    Ethresh 5.0
    maxcore 5000
end

%pal
  nprocs 6
  end
* xyz 0 1
   C       -7.62962        -3.35865         2.08100
   C       -8.71158        -3.68403         2.85790
   C       -9.09855        -5.00571         3.15678
   N       -9.45394        -6.06339         3.42814
   C       -9.60069        -2.74119         3.41551
   N      -10.38306        -2.03472         3.87009
   C       -6.76011        -4.29813         1.38313
   C       -5.87322        -3.56447         0.55800
   C       -4.92564        -4.16917        -0.23092
   C       -4.85180        -5.56591        -0.20803
   C       -5.73956        -6.29015         0.62203
   C       -6.69697        -5.67822         1.42232
   S       -5.46727        -8.00273         0.50704
   C       -4.18373        -7.72534        -0.64010
   C       -3.96803        -6.41935        -0.92399
  Br       -3.24749        -9.18570        -1.35316
   C       -6.12277        -2.11839         0.72502
   O       -5.46741        -1.22104         0.23672
   C       -7.22269        -2.01985         1.71465
   C       -7.59932        -0.85620         2.32153
   C       -7.32771         0.43686         1.79649
   C       -7.03768         1.52235         2.64918
   C       -6.63632         2.79528         2.11791
   N       -6.26402         3.79527         2.92788
   C       -6.29764         3.59619         4.23373
   C       -6.72745         2.34158         4.76421
   N       -7.06839         1.34430         3.98122
   C       -6.77551         2.16619         6.17078
   N       -6.79281         2.07105         7.31186
   C       -5.89085         4.65154         5.08172
   N       -5.55491         5.51120         5.76226
   C       -6.57474         3.04798         0.72028
   C       -6.99454         2.00868        -0.12735
   C       -7.36168         0.71928         0.41071
   N       -7.77580        -0.10416        -0.54746
   S       -7.67283         0.62773        -1.97012
   N       -7.12647         2.04999        -1.45105
   N       -6.09516         4.27187         0.38031
   C       -5.81537         4.89906        -0.77473
   S       -6.19001         4.28492        -2.35263
   C       -5.47407         5.71273        -3.04521
   N       -5.46371         5.82841        -4.44088
   O       -4.95133         6.82089        -4.92715
   O       -5.97135         4.91839        -5.07286
   C       -4.97169         6.59297        -2.13168
   C       -5.15376         6.15601        -0.80105
   C       -4.71153         6.85656         0.35137
   C       -3.91089         7.96604         0.30852
   C       -3.44190         8.65746         1.42648
   C       -2.56610         9.72194         1.32667
   C       -2.00690        10.49679         2.36324
   C       -1.14255        11.46827         1.93460
   C       -0.97752        11.50398         0.53938
   S       -1.96127        10.27733        -0.22088
   C       -0.17109        12.32801        -0.23585
   C        0.69754        13.36120         0.16368
   C        1.35359        13.95679        -0.87605
   C        1.04196        13.42843        -2.15126
   S       -0.13352        12.13825        -1.96701
   C        1.57295        13.85147        -3.34823
   C        1.31269        13.37463        -4.64517
   C        1.91203        13.88522        -5.81012
   C        1.41843        13.17929        -6.92627
   C        1.67621        13.29010        -8.28069
   C        0.99927        12.42279        -9.14430
   C        1.03064        12.28738       -10.53027
   C        0.13885        11.24494       -10.91695
   C       -0.44577        10.73078        -9.76809
   C        0.05960        11.43600        -8.63675
   C       -0.20041        11.31774        -7.29703
   C        0.47766        12.19272        -6.42270
   C        0.42374        12.32048        -5.04879
   C       -0.13269        10.78356       -12.25727
   C        0.41236        11.27121       -13.36841
   H       -4.26147        -3.58368        -0.84720
   H       -7.34575        -6.27181         2.04468
   H       -3.21633        -6.06974        -1.60793
   H       -8.07907        -0.88081         3.29167
   H       -5.86736         4.79026         1.23582
   H       -4.50550         7.51644        -2.42095
   H       -4.99833         6.48683         1.32777
   H       -3.58223         8.33592        -0.65309
   H       -3.75476         8.35054         2.41514
   H       -2.25311        10.31643         3.39458
   H       -0.62476        12.14747         2.58805
   H        0.81849        13.63845         1.19538
   H        2.05700        14.76323        -0.76306
   H        2.28845        14.66273        -3.27998
   H        2.62915        14.68489        -5.84226
   H        2.37367        14.02142        -8.66409
   H        1.63041        12.87489       -11.20079
   H       -1.16446         9.93291        -9.72683
   H       -0.89769        10.58827        -6.91078
   H       -0.18544        11.72575        -4.39545
   H       -0.84573         9.97138       -12.32222
   H        1.12493        12.07799       -13.35439
   H        0.16045        10.87691       -14.33728
*
