# ORCA input file
# SCF done       -216.356299611856          0.000467550602
! CAM-B3LYP def2-SVP def2/J RIJCOSX Grid4 TightSCF
%maxcore 5000
%tddft
    Mode sTDDFT
    Ethresh 5.0
    maxcore 5000
end

%pal
  nprocs 6
  end
* xyz 0 1
   C      -13.25809        -2.09850        -3.60604
   C      -14.46671        -2.71597        -3.76595
   F      -15.49158        -2.05640        -4.32056
   C      -14.65172        -4.05033        -3.35001
   F      -15.84815        -4.62850        -3.51771
   C      -13.62483        -4.74864        -2.77923
   C      -12.36783        -4.13927        -2.59823
   C      -12.17874        -2.79075        -3.02041
   C      -10.92520        -2.15976        -2.85289
   C       -9.89256        -2.85649        -2.28130
   C      -10.09328        -4.19910        -1.85497
   C      -11.29267        -4.83472        -2.00265
   C       -8.85049        -4.72544        -1.26543
   O       -8.70390        -5.79535        -0.71955
   C       -7.86703        -3.60745        -1.35369
   C       -8.51292        -2.47872        -1.99733
   C       -7.91028        -1.30357        -2.35903
   C       -6.54919        -0.99945        -2.14216
   N       -5.45109        -0.69396        -2.00580
   C       -8.57331        -0.24543        -3.01650
   N       -9.06217         0.65148        -3.53946
   C       -6.65602        -3.60274        -0.73110
   C       -5.96742        -4.76098        -0.28212
   C       -5.91665        -6.01708        -0.87702
   C       -6.50961        -6.26712        -2.12848
   N       -6.95161        -6.41220        -3.17554
   C       -5.10003        -6.92165        -0.16048
   C       -4.53751        -6.31980         0.96805
   S       -4.95682        -4.66517         1.14544
   S       -3.54453        -7.35431         1.93951
   C       -3.88264        -8.63224         0.82018
   C       -4.70474        -8.28865        -0.25088
   C       -4.91568        -9.39038        -1.11372
   C       -5.69634        -9.40524        -2.27840
   N       -6.32838        -9.49279        -3.23173
   C       -4.24760       -10.54213        -0.68281
   S       -3.37777       -10.27724         0.81689
   C       -4.24116       -11.77437        -1.35657
   C       -3.57617       -12.91341        -0.99168
   C       -3.60248       -14.14677        -1.69457
   C       -2.87649       -15.13906        -1.11689
   C       -2.21555       -14.74944         0.07206
   S       -2.56532       -13.06722         0.43480
   C       -1.39927       -15.51472         0.87348
   C       -1.09214       -16.89069         0.73740
   C       -0.21648       -17.35994         1.66142
   C        0.26061       -16.37134         2.56433
   S       -0.55301       -14.83815         2.25142
   C        1.27026       -16.53656         3.46288
   N        1.84024       -15.53035         4.17020
   C        2.99002       -15.61634         4.87520
   S        3.56241       -17.15430         5.44728
   C        4.84865       -16.34656         6.29339
   N        5.75056       -17.14784         7.00133
   O        6.65813       -16.59579         7.59408
   O        5.55087       -18.35092         6.96491
   C        4.82855       -14.98863         6.14417
   C        3.79229       -14.54033         5.29826
   C        3.65896       -13.15275         4.95430
   C        3.10421       -12.60509         3.84497
   C        2.71229       -13.29307         2.66330
   C        1.80812       -12.86599         1.73950
   C        1.64293       -13.53530         0.42214
   O        2.11718       -14.59736         0.08731
   C        0.78850       -12.62514        -0.37165
   C        0.31785       -12.76608        -1.64499
   C       -0.49136       -11.74581        -2.19616
   C       -0.73772       -10.56194        -1.44222
   C       -1.51156        -9.53331        -2.01366
   C       -2.05537        -9.68623        -3.25838
   C       -1.83768       -10.87068        -3.99094
   C       -1.06315       -11.87353        -3.47623
   F       -2.38970       -11.00635        -5.20093
   F       -2.80144        -8.70999        -3.78445
   C       -0.25408       -10.44969        -0.11981
   C        0.45188       -11.48833         0.42042
   C        0.89419       -11.74612         1.78339
   C        0.29838       -11.24518         2.91437
   C        0.43005       -11.91613         4.14448
   N        0.48770       -12.54876         5.10154
   C       -0.61708       -10.17676         2.90681
   N       -1.34769        -9.29161         2.93339
   H      -13.13316        -1.07774        -3.93222
   H      -13.78149        -5.76923        -2.46700
   H      -10.81474        -1.13778        -3.17795
   H      -11.41438        -5.85563        -1.67459
   H       -6.16779        -2.65854        -0.52242
   H       -4.83254       -11.81615        -2.26278
   H       -4.16878       -14.25148        -2.60274
   H       -2.78843       -16.13412        -1.51351
   H       -1.52843       -17.48862        -0.04148
   H        0.13975       -18.37296         1.70796
   H        1.71524       -17.51430         3.58389
   H        1.43276       -14.60211         4.08010
   H        5.56168       -14.34629         6.59808
   H        4.06045       -12.47675         5.69741
   H        2.98299       -11.52860         3.83424
   H        3.22906       -14.21652         2.42458
   H        0.54557       -13.64996        -2.22135
   H       -1.68755        -8.62082        -1.46506
   H       -0.89653       -12.76754        -4.05659
   H       -0.46535        -9.55413         0.44267
*
