# ORCA input file
# SCF done       -218.262800523290          0.000518552739
! CAM-B3LYP def2-SVP def2/J RIJCOSX Grid4 TightSCF
%maxcore 5000
%tddft
    Mode sTDDFT
    Ethresh 5.0
    maxcore 5000
end

%pal
  nprocs 6
  end
* xyz 0 1
   C       -3.60271        -1.93034        -2.14816
   O       -3.53397        -2.96429        -2.78300
   C       -2.62021        -0.82766        -2.24708
   C       -3.07916         0.28452        -1.52670
   C       -2.28658         1.41840        -1.43220
   C       -1.09326         1.45414        -2.13648
   C       -0.69570         0.36825        -2.90495
   C       -1.43197        -0.80610        -2.94834
  Br        0.87883         0.51190        -3.96026
   C       -4.40233        -0.02985        -1.00386
   C       -5.30104         0.90532        -0.57398
   C       -5.02566         2.28944        -0.59497
   N       -4.84738         3.42280        -0.61557
   C       -6.62271         0.64573        -0.15151
   N       -7.70389         0.51509         0.21187
   C       -4.63505        -1.46116        -1.19508
   C       -5.58274        -2.13864        -0.47857
   C       -5.96763        -3.51423        -0.41464
   C       -5.52948        -4.50058        -1.31523
   C       -5.92437        -5.79901        -1.13917
   C       -6.77473        -6.17812        -0.08223
   C       -7.24264        -5.20609         0.79894
   C       -6.84294        -3.89934         0.62465
   C       -6.98469        -7.60617        -0.15504
   C       -6.26130        -8.10327        -1.25699
   C       -5.54208        -6.99160        -1.97618
   C       -6.04365        -6.84138        -3.42475
   C       -7.54959        -6.62389        -3.50972
   C       -4.01732        -7.20616        -1.96720
   C       -3.44829        -7.38148        -0.56456
   C       -6.25667        -9.43654        -1.56324
   C       -6.97865       -10.34422        -0.76702
   C       -7.71106        -9.83199         0.31947
   C       -7.72020        -8.48750         0.63101
   C       -6.97367       -11.75756        -1.03439
   C       -6.19547       -12.34374        -1.98135
   C       -6.11177       -13.70806        -2.31688
   C       -5.25937       -14.13640        -3.30569
   C       -5.01686       -15.44577        -3.79133
   C       -4.08935       -15.51972        -4.78912
   C       -3.54004       -14.27173        -5.15622
   S       -4.25085       -12.99786        -4.18894
   C       -2.58414       -13.93282        -6.09168
   C       -1.82676       -14.71419        -6.99315
   C       -0.94937       -13.99342        -7.74394
   C       -0.94641       -12.58907        -7.49470
   S       -2.13661       -12.24981        -6.24473
   C       -0.18704       -11.65779        -8.14755
   C       -0.17162       -10.23760        -7.95947
   C       -0.78177        -9.62511        -6.85274
   C       -0.85256        -8.26180        -6.76806
   C       -0.31037        -7.44109        -7.77529
   C        0.36478        -8.02919        -8.84190
   C        0.43261        -9.40469        -8.92213
   C       -0.66224        -6.06903        -7.48062
   C       -1.45160        -6.05987        -6.31273
   C       -1.56172        -7.44425        -5.72095
   C       -3.02455        -7.88311        -5.55752
   C       -3.80332        -7.83164        -6.86693
   C       -0.81387        -7.42716        -4.36762
   C       -0.62749        -8.78093        -3.69526
   C       -2.00845        -4.89919        -5.85022
   C       -1.76388        -3.69066        -6.52704
   C       -0.94067        -3.69978        -7.66557
   C       -0.40249        -4.87548        -8.14863
   C       -2.40939        -2.51641        -6.02170
   C       -2.08384        -1.21843        -6.25862
   C       -2.83070        -0.19600        -5.63876
   C       -2.60123         1.14678        -5.52970
   C       -3.34787         1.87676        -4.47883
   O       -4.29333         1.46146        -3.83917
   C       -2.63075         3.15361        -4.29609
   C       -1.56400         3.21803        -5.21173
   C       -1.61162         2.04304        -6.08484
   C       -0.95003         1.93810        -7.27988
   C       -0.03454         2.89952        -7.75852
   N        0.72320         3.63966        -8.20058
   C       -1.15560         0.92663        -8.23957
   N       -1.29483         0.15929        -9.08230
   C       -0.68499         4.28955        -5.16395
   C       -0.89476         5.28249        -4.21885
   C       -1.96979         5.21108        -3.34163
   C       -2.85811         4.14417        -3.36177
  Br       -2.21092         6.59522        -2.06361
   H       -2.57933         2.26876        -0.83914
   H       -0.47192         2.33632        -2.09855
   H       -1.10480        -1.66292        -3.51684
   H       -6.11996        -1.52628         0.23840
   H       -4.88766        -4.23400        -2.13546
   H       -7.90618        -5.47001         1.60882
   H       -7.19907        -3.14242         1.30902
   H       -5.77851        -7.74190        -3.98226
   H       -5.53217        -5.99357        -3.88492
   H       -8.08570        -7.46320        -3.07192
   H       -7.85339        -6.52684        -4.54937
   H       -7.83965        -5.71814        -2.98185
   H       -3.54506        -6.34188        -2.43847
   H       -3.78400        -8.09127        -2.56125
   H       -3.64098        -6.50005         0.04323
   H       -2.37272        -7.53430        -0.61658
   H       -3.89427        -8.24279        -0.07196
   H       -5.69989        -9.77935        -2.42046
   H       -8.27570       -10.52105         0.93165
   H       -8.28874        -8.12821         1.47609
   H       -7.62179       -12.37237        -0.42298
   H       -5.53828       -11.71186        -2.56410
   H       -6.71953       -14.43568        -1.79773
   H       -5.53567       -16.29613        -3.38415
   H       -3.78518       -16.43397        -5.26798
   H       -1.95096       -15.78060        -7.06239
   H       -0.29252       -14.42341        -8.48015
   H        0.44591       -12.03945        -8.93985
   H       -1.20178       -10.22129        -6.06420
   H        0.80987        -7.41824        -9.61328
   H        0.93076        -9.86270        -9.76491
   H       -3.50066        -7.22583        -4.83024
   H       -3.05331        -8.90268        -5.17103
   H       -3.80110        -6.82488        -7.27895
   H       -4.83526        -8.13150        -6.69913
   H       -3.36672        -8.50438        -7.60145
   H       -1.36254        -6.76528        -3.69435
   H        0.17108        -6.98296        -4.53513
   H       -1.57700        -9.28557        -3.53931
   H       -0.15990        -8.63708        -2.72339
   H        0.01850        -9.42315        -4.28730
   H       -2.62735        -4.88837        -4.96482
   H       -0.76452        -2.77577        -8.19513
   H        0.20415        -4.86779        -9.04167
   H       -3.22557        -2.70805        -5.33345
   H       -1.22540        -0.97224        -6.86088
   H       -3.68550        -0.53130        -5.05616
   H        0.16086         4.35816        -5.82790
   H       -0.21583         6.11941        -4.16168
   H       -3.68656         4.07990        -2.67178
*
