# ORCA input file
# SCF done       -158.610444551184          0.000244146544
! CAM-B3LYP def2-SVP def2/J RIJCOSX Grid4 TightSCF
%maxcore 5000
%tddft
    Mode sTDDFT
    Ethresh 5.0
    maxcore 5000
end

%pal
  nprocs 6
  end
* xyz 0 1
   C        9.53481       -20.94899        -7.29627
   C        8.28530       -20.93809        -6.81585
   C        7.46813       -22.06743        -6.46737
   C        6.24476       -21.74792        -5.99710
   C        5.99034       -20.34574        -5.93005
   S        7.37921       -19.44805        -6.50727
   C        4.85361       -19.72596        -5.48077
   C        3.67192       -20.31514        -4.95797
   C        2.73271       -19.42114        -4.56941
   C        3.10751       -18.05334        -4.74630
   S        4.71006       -17.97523        -5.46627
   C        2.30163       -16.99440        -4.46377
   N        2.60011       -15.65609        -4.55093
   C        3.79695       -15.04452        -4.38296
   S        5.09140       -15.79419        -3.51047
   C        6.05269       -14.36273        -3.72690
   N        7.34053       -14.37464        -3.19835
   O        8.02955       -13.37882        -3.34374
   O        7.68484       -15.39288        -2.61556
   C        5.40706       -13.37156        -4.41684
   C        4.10094       -13.72998        -4.79230
   C        3.18196       -12.87356        -5.48312
   C        3.51250       -11.70581        -6.07011
   C        2.57950       -10.82752        -6.68340
   S        0.82404       -11.02683        -6.61228
   C        0.75240        -9.52537        -7.52475
   N        1.93214        -9.03861        -7.77889
   N        2.92513        -9.74978        -7.32269
   C       -0.45135        -8.86832        -7.88412
   S       -1.88337        -9.04733        -6.94493
   C       -2.70673        -7.79100        -7.80106
   C       -1.88209        -7.23410        -8.78426
   C       -0.61509        -7.88950        -8.87015
   C        0.29853        -7.51778        -9.88658
   C        1.49210        -8.36091       -10.19393
   O        1.43010        -9.54428       -10.42006
   O        2.59819        -7.62827       -10.29409
   C        3.80095        -8.34574       -10.53823
   C       -0.00277        -6.44033       -10.67848
   C       -1.19409        -5.71149       -10.49886
   C       -2.13212        -6.10190        -9.58739
   C       -4.03083        -7.42514        -7.42623
   S       -4.47725        -7.43333        -5.73458
   C       -6.04026        -6.84556        -6.09337
   C       -6.23251        -6.65229        -7.43193
   C       -5.09068        -7.00326        -8.21164
   C       -5.16142        -7.06647        -9.67382
   O       -4.31976        -7.60959       -10.36807
   C       -6.36738        -6.43456       -10.25660
   C       -6.41788        -6.27290       -11.63921
   C       -7.50538        -5.67446       -12.24397
   C       -8.58301        -5.22475       -11.48558
   C       -9.78549        -4.61528       -12.14191
   C      -10.81113        -5.70101       -12.47707
   C       -8.54217        -5.39909       -10.10972
   C       -7.44980        -5.99024        -9.48394
   C       -7.47876        -6.13800        -8.01245
   O       -8.44738        -5.84379        -7.33792
   H       10.04998       -21.87781        -7.46727
   H       10.06192       -20.04009        -7.52158
   H        7.84187       -23.06930        -6.58382
   H        5.50548       -22.46511        -5.68736
   H        3.56057       -21.38147        -4.87989
   H        1.77947       -19.68201        -4.14523
   H        1.28053       -17.20048        -4.17206
   H        1.81615       -15.04089        -4.72984
   H        5.86997       -12.42452        -4.62211
   H        2.14502       -13.18568        -5.52636
   H        4.53523       -11.36393        -6.11015
   H        4.07133        -8.91453        -9.64625
   H        4.56128        -7.60180       -10.76146
   H        3.67018        -9.03310       -11.37678
   H        0.68391        -6.14803       -11.45792
   H       -1.37037        -4.84269       -11.11469
   H       -3.04702        -5.54611        -9.46113
   H       -6.75103        -6.66608        -5.31066
   H       -5.57943        -6.62498       -12.22213
   H       -7.52112        -5.55097       -13.31729
   H       -9.48852        -4.10373       -13.05948
   H      -10.24196        -3.88502       -11.47145
   H      -10.37944        -6.43513       -13.15375
   H      -11.68474        -5.26161       -12.95200
   H      -11.12804        -6.21366       -11.57189
   H       -9.36360        -5.07122        -9.48857
*
