# ORCA input file
# SCF done       -195.511823125634          0.000957406829
! CAM-B3LYP def2-SVP def2/J RIJCOSX Grid4 TightSCF
%maxcore 5000
%tddft
    Mode sTDDFT
    Ethresh 5.0
    maxcore 5000
end

%pal
  nprocs 6
  end
* xyz 0 1
   C       -7.98097        -2.33758         1.95665
   C       -8.90983        -1.31883         2.09225
   C      -10.18128        -1.63766         2.57290
   C      -11.14961        -0.61157         2.71096
   N      -11.92583         0.22243         2.82054
   C      -10.52072        -2.95892         2.92273
   C      -11.81977        -3.25002         3.40562
   N      -12.86559        -3.50430         3.79606
   C       -9.57868        -3.98059         2.79409
   C       -8.33070        -3.65599         2.30638
   C       -7.17486        -4.55168         2.08528
   O       -7.06231        -5.69041         2.47578
   C       -6.13019        -3.69483         1.46068
   C       -6.59970        -2.32438         1.47173
   C       -5.91077        -1.21430         1.06181
   C       -6.43110         0.09867         1.08730
   N       -6.79645         1.18586         1.09045
   C       -4.58646        -1.22107         0.57173
   N       -3.51606        -1.15745         0.16299
   C       -4.90097        -4.14942         1.07224
   C       -4.61763        -5.50428         0.80560
   S       -3.01932        -6.14808         0.94700
   C       -3.49196        -7.72207         0.40406
   C       -4.87161        -7.75951         0.15157
   C       -5.50062        -6.48552         0.30898
   N       -6.76852        -6.26878        -0.06157
   C       -7.44172        -7.31720        -0.45097
   N       -7.04185        -8.58637        -0.36368
   C       -5.78768        -8.82492        -0.05639
   C       -5.41816       -10.17532         0.19809
   N       -5.12539       -11.24648         0.48029
   C       -2.51347        -8.73108         0.21116
   C       -2.64138        -9.75825        -0.75846
   C       -1.63959       -10.77587        -0.92723
   N       -1.91342       -11.84056        -1.68755
   C       -2.98649       -11.84588        -2.43302
   C       -3.82832       -10.68346        -2.48886
   N       -3.67615        -9.72493        -1.61227
   C       -4.86757       -10.57667        -3.44625
   N       -5.69812       -10.50246        -4.23066
   C       -3.30359       -13.00294        -3.18661
   N       -3.56975       -13.91326        -3.82782
   C       -0.39431       -10.70488        -0.25623
   C       -0.25797        -9.67218         0.69571
   C       -1.28688        -8.69281         0.90839
   N       -0.91903        -7.78320         1.81309
   S        0.55829        -8.11632         2.33469
   N        0.81480        -9.43440         1.45345
   C        0.70592       -11.53516        -0.56442
   S        2.01602       -11.67276         0.53265
   C        2.99463       -12.59531        -0.57156
   C        2.28937       -12.81692        -1.76278
   C        0.99596       -12.20233        -1.77422
   N        0.21243       -12.20817        -2.85475
   C        0.64707       -12.87275        -3.89347
   N        1.81413       -13.50697        -3.99274
   C        2.64626       -13.46401        -2.97557
   C        3.91842       -14.07775        -3.14590
   N        4.94501       -14.56643        -3.27790
   C        4.28953       -13.02924        -0.21361
   C        5.10288       -12.47294         0.73011
   C        6.19803       -13.27832         1.33905
   O        6.64603       -14.32342         0.94236
   C        6.55507       -12.54797         2.58092
   C        7.43082       -12.92501         3.57695
   C        7.58185       -12.07743         4.67631
   C        6.84999       -10.87642         4.75249
   C        5.97396       -10.49816         3.73361
   C        5.83094       -11.34011         2.64456
   C        5.04097       -11.20177         1.42295
   C        4.56965       -10.01789         0.91949
   C        4.10276        -9.87688        -0.40537
   N        3.75143        -9.71960        -1.48663
   C        4.48687        -8.81639         1.64955
   N        4.32433        -7.83204         2.21692
   C        6.99970       -10.03683         5.88479
   N        7.10746        -9.34900         6.79326
   C        8.46991       -12.42594         5.72330
   N        9.18784       -12.72124         6.56463
   H       -8.68700        -0.29451         1.83940
   H       -9.82098        -4.99797         3.06115
   H       -4.08064        -3.45376         0.95268
   H       -8.44413        -7.15778        -0.82222
   H        0.01115       -12.90377        -4.76689
   H        4.66224       -13.93221        -0.68660
   H        7.98439       -13.84907         3.50805
   H        5.42490        -9.57366         3.82158
*
