# ORCA input file
# SCF done       -218.919809491104          0.000381551874
! CAM-B3LYP def2-SVP def2/J RIJCOSX Grid4 TightSCF
%maxcore 5000
%tddft
    Mode sTDDFT
    Ethresh 5.0
    maxcore 5000
end

%pal
  nprocs 6
  end
* xyz 0 1
   C       -2.38435         2.59963         5.29535
   C       -3.42988         3.48282         5.07306
   C       -4.70035         3.02426         4.75281
   C       -4.96396         1.66690         4.65140
   C       -3.92698         0.77452         4.86923
   C       -2.63039         1.23945         5.18894
   C       -1.74266         0.09534         5.34160
   C       -0.45885         0.12594         5.81121
   C        0.20784         1.30403         6.21128
   N        0.80523         2.22338         6.55022
   C        0.35925        -1.00654         6.01259
   N        1.07394        -1.88276         6.21181
   C       -2.49724        -1.07932         4.90523
   C       -3.90244        -0.67884         4.84974
   C       -4.98205        -1.50221         5.01161
   C       -4.88614        -2.88707         5.26460
   N       -4.87110        -4.00026         5.54256
   C       -6.31675        -1.04693         5.03371
   N       -7.41870        -0.72673         5.04211
   C       -1.93842        -2.25163         4.50643
   C       -2.54401        -3.29534         3.72303
   C       -2.10225        -4.61630         3.90340
   C       -2.66242        -5.62095         3.15690
   C       -3.63933        -5.33130         2.18665
   C       -4.04542        -4.02192         1.96472
   C       -3.50159        -3.01779         2.73565
   C       -4.02258        -6.56437         1.53696
   C       -3.27634        -7.61408         2.09933
   C       -2.37378        -7.10199         3.19521
   C       -0.89443        -7.40184         2.89107
   C       -0.45038        -6.87368         1.53242
   C       -2.75484        -7.70515         4.56142
   C       -4.20498        -7.43972         4.94666
   C       -3.40958        -8.89900         1.63239
   C       -4.29721        -9.15242         0.58120
   C       -5.07182        -8.10991         0.06177
   C       -4.93854        -6.81715         0.52630
   C       -4.43994       -10.48351         0.01794
   S       -6.02191       -11.05558        -0.40626
   C       -5.37553       -12.55009        -1.01194
   C       -3.99652       -12.57683        -0.90144
   C       -3.46768       -11.40907        -0.29267
   S       -1.76260       -11.00258        -0.04173
   C       -1.04512       -12.64073         0.34522
   C       -0.50642       -13.33146        -0.89784
   C       -1.53947       -13.34673        -2.01309
   S       -3.14252       -14.02097        -1.45246
   C       -6.20904       -13.55402        -1.58075
   C       -7.55391       -13.54610        -1.51839
   C       -8.43460       -14.51513        -2.12458
   C       -8.00936       -15.36304        -3.15847
   C       -8.90012       -16.24321        -3.71989
   C      -10.22641       -16.31994        -3.25728
   C      -10.65803       -15.48980        -2.23139
   C       -9.76498       -14.59079        -1.68694
   C      -10.93003       -17.31375        -4.03503
   C      -10.04293       -17.83495        -4.99690
   C       -8.67698       -17.20583        -4.86239
   C       -8.27801       -16.46404        -6.15297
   C       -9.22866       -15.32550        -6.50353
   C       -7.60667       -18.25795        -4.51697
   C       -7.93161       -19.03892        -3.24934
   C      -10.46565       -18.77406        -5.89964
   C      -11.79559       -19.22752        -5.85268
   C      -12.64729       -18.75486        -4.84423
   C      -12.23269       -17.78727        -3.95326
   C      -12.28858       -20.20153        -6.79018
   C      -11.91348       -20.34438        -8.08946
   C      -12.11786       -21.54519        -8.89754
   C      -13.01315       -22.55338        -8.66893
   C      -13.95358       -22.58142        -7.61674
   N      -14.74880       -22.66732        -6.79311
   C      -13.14968       -23.69197        -9.49172
   N      -13.30983       -24.64060       -10.11760
   C      -11.17821       -21.46539       -10.00800
   C      -10.54791       -20.19968        -9.98769
   C       -9.59519       -19.86830       -10.93741
   C       -9.27329       -20.80593       -11.90645
   C       -9.89505       -22.04671       -11.93267
   C      -10.85129       -22.38927       -10.98878
   C      -11.11243       -19.42454        -8.89599
   C      -11.11133       -18.06022        -8.79602
   C      -10.33165       -17.21071        -9.60625
   N       -9.68750       -16.48005       -10.21367
   C      -11.95323       -17.34133        -7.92108
   N      -12.67108       -16.70377        -7.29250
   H       -1.40300         2.97361         5.53693
   H       -3.24865         4.54414         5.14702
   H       -5.49549         3.73253         4.57728
   H       -5.95244         1.32139         4.39478
   H       -0.89490        -2.41387         4.74376
   H       -1.35333        -4.82386         4.65326
   H       -4.76959        -3.79047         1.19832
   H       -3.78332        -1.99107         2.54806
   H       -0.74462        -8.48267         2.92194
   H       -0.27905        -6.95579         3.67485
   H       -1.01621        -7.34764         0.73343
   H        0.60491        -7.08486         1.37695
   H       -0.59874        -5.79773         1.46933
   H       -2.09500        -7.28529         5.32316
   H       -2.57863        -8.78250         4.52217
   H       -4.39431        -6.37347         5.03832
   H       -4.42487        -7.90880         5.90272
   H       -4.88265        -7.84882         4.20015
   H       -2.84740        -9.70782         2.07074
   H       -5.76965        -8.32720        -0.73390
   H       -5.53185        -6.02090         0.10299
   H       -1.82555       -13.23011         0.82424
   H       -0.24915       -12.45055         1.06390
   H       -0.22624       -14.35399        -0.63433
   H        0.38393       -12.81036        -1.25709
   H       -1.22445       -13.99317        -2.83119
   H       -1.72649       -12.34621        -2.40008
   H       -5.67784       -14.36111        -2.06687
   H       -8.03597       -12.75880        -0.95061
   H       -6.99686       -15.29855        -3.52627
   H      -11.67607       -15.53678        -1.87539
   H      -10.08795       -13.92951        -0.89574
   H       -8.25184       -17.18355        -6.97513
   H       -7.26856       -16.06563        -6.03187
   H      -10.25670       -15.67691        -6.55596
   H       -8.96264       -14.90232        -7.46937
   H       -9.17814       -14.53841        -5.75488
   H       -6.64783       -17.75069        -4.39233
   H       -7.51079       -18.94970        -5.35703
   H       -8.00747       -18.36902        -2.39583
   H       -7.14871       -19.76630        -3.04746
   H       -8.87568       -19.56947        -3.35351
   H       -9.78046       -19.19431        -6.62304
   H      -13.66008       -19.12730        -4.80561
   H      -12.91136       -17.40746        -3.20531
   H      -12.99068       -20.91772        -6.38397
   H       -9.10381       -18.90870       -10.92268
   H       -8.52854       -20.56534       -12.64962
   H       -9.63053       -22.75984       -12.69835
   H      -11.32091       -23.35846       -11.02351
*
