# ORCA input file
# SCF done       -219.213123281994          0.000340547926
! CAM-B3LYP def2-SVP def2/J RIJCOSX Grid4 TightSCF
%maxcore 5000
%tddft
    Mode sTDDFT
    Ethresh 5.0
    maxcore 5000
end

%pal
  nprocs 6
  end
* xyz 0 1
   C      -14.99267         1.00413        -1.00111
   C      -15.86714         0.95586         0.07377
   C      -15.57532         0.20185         1.20215
   C      -14.39588        -0.52143         1.29091
   C      -13.51393        -0.48154         0.22314
   C      -13.81248         0.27994        -0.93035
   C      -12.72852         0.12828        -1.89055
   C      -12.57648         0.83130        -3.05357
   C      -13.48016         1.81728        -3.50517
   N      -14.17476         2.62620        -3.92956
   C      -11.48251         0.71568        -3.93814
   N      -10.62052         0.68450        -4.69596
   C      -11.84077        -0.90634        -1.35970
   C      -12.21094        -1.10003         0.04155
   C      -11.38712        -1.53961         1.04060
   C      -10.02380        -1.85413         0.85910
   N       -8.89475        -2.04822         0.79318
   C      -11.77823        -1.63982         2.39203
   N      -12.05478        -1.75769         3.49958
   C      -10.94847        -1.61181        -2.10236
   C      -10.30523        -2.85537        -1.76989
   C       -9.02479        -3.10700        -2.28889
   C       -8.39244        -4.28345        -1.97873
   C       -9.03557        -5.25624        -1.19085
   C      -10.32557        -5.04067        -0.72201
   C      -10.94531        -3.84311        -1.00601
   C       -8.14865        -6.38710        -1.03994
   C       -6.95936        -6.11492        -1.74088
   C       -7.01463        -4.74926        -2.38067
   C       -6.86691        -4.83339        -3.91114
   C       -7.90903        -5.73801        -4.55779
   C       -5.92501        -3.82240        -1.80606
   C       -5.99351        -3.68959        -0.28965
   C       -5.93980        -7.03294        -1.76904
   C       -6.09175        -8.24351        -1.08002
   C       -7.27685        -8.50432        -0.37656
   C       -8.30525        -7.58659        -0.35600
   C       -5.04172        -9.22121        -1.07280
   S       -3.57701        -8.99924        -2.06984
   C       -3.00577       -10.48353        -1.43790
   C       -3.93444       -11.02325        -0.54487
   N       -5.04574       -10.31330        -0.36696
   C       -3.43338       -12.30984         0.03187
   C       -2.09690       -12.42581        -0.64207
   C       -1.88771       -11.34557        -1.50114
   S       -0.37846       -11.43279        -2.30626
   C       -0.00200       -12.92817        -1.46888
   C       -1.02737       -13.31502        -0.62354
   C        1.25837       -13.54040        -1.72438
   C        1.77849       -14.57138        -1.02849
   C        3.07167       -15.16998        -1.26209
   C        3.65812       -15.92668        -0.23491
   C        4.90797       -16.46538        -0.41292
   C        5.59397       -16.29219        -1.62819
   C        5.01266       -15.57168        -2.66305
   C        3.76607       -15.01453        -2.47031
   C        6.87725       -16.94864        -1.53266
   C        6.99385       -17.51090        -0.24673
   C        5.74044       -17.26720         0.55976
   C        6.04713       -16.46399         1.83829
   C        6.62598       -15.08397         1.54975
   C        5.05171       -18.59351         0.93334
   C        4.72395       -19.45395        -0.28110
   C        8.13866       -18.16290         0.12798
   C        9.19784       -18.27975        -0.78903
   C        9.04018       -17.77955        -2.08915
   C        7.90103       -17.09587        -2.45879
   C       10.42564       -18.94301        -0.43670
   C       11.02145       -18.96058         0.78522
   C       12.02905       -19.92813         1.21627
   C       12.81722       -20.71156         0.41927
   C       12.83080       -20.68070        -0.99184
   N       12.90196       -20.70524        -2.13745
   C       13.76710       -21.63421         0.90775
   N       14.55467       -22.40058         1.23876
   C       12.03831       -19.89962         2.67268
   C       11.20668       -18.84609         3.11791
   C       11.03205       -18.60615         4.47124
   C       11.68980       -19.42281         5.37800
   C       12.51183       -20.45362         4.94374
   C       12.69588       -20.70252         3.59214
   C       10.69231       -18.14515         1.95367
   C       10.23018       -16.85794         1.93157
   C        9.93812       -16.10461         3.08640
   N        9.64788       -15.46374         3.99340
   C       10.06806       -16.10567         0.74873
   N        9.99679       -15.41881        -0.16791
   H      -15.23813         1.59046        -1.87125
   H      -16.79069         1.51239         0.02798
   H      -16.27548         0.17556         2.02302
   H      -14.18228        -1.10902         2.16915
   H      -10.71764        -1.23761        -3.09145
   H       -8.54192        -2.35161        -2.89090
   H      -10.83725        -5.79663        -0.14580
   H      -11.95933        -3.67531        -0.67066
   H       -5.86832        -5.20813        -4.14412
   H       -6.95118        -3.82735        -4.32653
   H       -7.82873        -6.75293        -4.17442
   H       -7.76310        -5.76473        -5.63503
   H       -8.91423        -5.37400        -4.35616
   H       -6.03301        -2.83587        -2.26090
   H       -4.94899        -4.21914        -2.09439
   H       -6.94169        -3.25886         0.02065
   H       -5.19333        -3.04174         0.06022
   H       -5.88136        -4.66069         0.18810
   H       -5.02267        -6.83313        -2.30431
   H       -7.36029        -9.44386         0.14616
   H       -9.21480        -7.79713         0.18600
   H       -4.09179       -13.14612        -0.21052
   H       -3.34779       -12.25818         1.11874
   H       -0.99163       -14.21123        -0.03177
   H        1.83135       -13.08728        -2.52171
   H        1.22531       -14.96866        -0.18786
   H        3.12688       -16.05615         0.69746
   H        5.52948       -15.44412        -3.60222
   H        3.30789       -14.46059        -3.27493
   H        6.75177       -17.03480         2.44811
   H        5.12630       -16.35498         2.41511
   H        7.50297       -15.15438         0.91020
   H        6.91865       -14.60100         2.47912
   H        5.89243       -14.45616         1.04942
   H        4.13082       -18.36658         1.47442
   H        5.70577       -19.15015         1.60835
   H        4.05702       -18.92415        -0.95757
   H        4.23631       -20.37385         0.03318
   H        5.62884       -19.71343        -0.82641
   H        8.22278       -18.61717         1.10574
   H        9.85322       -17.89504        -2.79025
   H        7.80936       -16.68457        -3.45209
   H       10.87813       -19.52444        -1.22921
   H       10.39247       -17.81052         4.81822
   H       11.55925       -19.25263         6.43573
   H       13.01629       -21.07475         5.66795
   H       13.33565       -21.50913         3.27408
*
