# ORCA input file
# SCF done       -252.913569771054          0.000828976316
! CAM-B3LYP def2-SVP def2/J RIJCOSX Grid4 TightSCF
%maxcore 5000
%tddft
    Mode sTDDFT
    Ethresh 5.0
    maxcore 5000
end

%pal
  nprocs 6
  end
* xyz 0 1
   C       -8.26747         2.85262       -12.83577
   C       -7.83368         3.67596       -11.80731
   C       -7.65576         3.18510       -10.52147
   C       -7.91539         1.85572       -10.22445
   C       -8.34871         1.02461       -11.24359
   C       -8.52174         1.51894       -12.55664
   C       -8.96228         0.42899       -13.41902
   C       -9.34797         0.54440       -14.72757
   C       -9.38078         1.76332       -15.43817
   N       -9.43158         2.71696       -16.07476
   C       -9.80457        -0.51541       -15.53920
   N      -10.18663        -1.32818       -16.25481
   C       -8.89708        -0.78873       -12.61886
   C       -8.73668        -0.37607       -11.22953
   C       -9.16864        -1.07236       -10.13272
   C       -9.85820        -2.30083       -10.21417
   N      -10.46865        -3.27214       -10.24926
   C       -9.05950        -0.60139        -8.80876
   N       -8.97480        -0.27892        -7.71065
   C       -8.87707        -2.05734       -13.12748
   C       -8.39945        -3.23970       -12.51963
   S       -7.22885        -3.27044       -11.22136
   C       -7.20589        -5.00527       -11.22159
   C       -8.05456        -5.51390       -12.18926
   C       -8.69668        -4.53085       -12.92789
   C       -6.40414        -5.72200       -10.30116
   C       -5.52234        -5.21982        -9.36275
   C       -4.91260        -6.20443        -8.59300
   C       -5.31989        -7.48590        -8.91908
   S       -6.47024        -7.45843       -10.22174
   C       -4.93923        -8.70650        -8.30249
   S       -5.68807       -10.20747        -8.74164
   C       -4.76595       -11.07653        -7.54626
   C       -3.91326       -10.21746        -6.87079
   C       -4.01030        -8.89768        -7.29137
   C       -5.00069       -12.45845        -7.35973
   C       -4.40590       -13.22888        -6.41282
   C       -4.73618       -14.58495        -6.19691
   C       -4.24670       -15.43940        -5.21324
   C       -3.22534       -15.04532        -4.25425
   O       -2.69457       -13.94991        -4.20658
   C       -2.86222       -16.12521        -3.30954
   C       -3.46195       -17.41181        -3.34154
   C       -2.95037       -18.23987        -2.36973
   S       -1.74720       -17.47793        -1.40928
   C       -1.92149       -16.02622        -2.31206
   C       -1.08125       -14.84015        -1.95373
   F       -0.27305       -14.45597        -2.94561
   F       -1.80732       -13.78093        -1.58614
   F       -0.28133       -15.12676        -0.90904
   C       -3.31598       -19.66411        -2.08825
   F       -4.58974       -19.81224        -1.71477
   F       -3.10005       -20.47088        -3.13120
   F       -2.57070       -20.15140        -1.07789
   C       -4.51830       -17.77939        -4.30394
   O       -5.04385       -18.88416        -4.27678
   C       -4.85636       -16.73229        -5.23663
   C       -5.80880       -16.87145        -6.25072
   S       -5.93141       -15.39374        -7.17394
   C       -6.66012       -17.93412        -6.62332
   S       -6.84960       -19.44102        -5.76764
   C       -8.08347       -19.94886        -6.87271
   C       -8.30614       -19.00905        -7.87072
   C       -7.51643       -17.88605        -7.72240
   C       -8.76049       -21.18468        -6.70135
   C       -9.68522       -21.77691        -7.54331
   C      -10.18817       -22.97703        -7.05403
   C       -9.66479       -23.32883        -5.82360
   S       -8.51107       -22.14735        -5.27632
   C       -9.98930       -24.45765        -5.03151
   S      -11.14909       -25.63039        -5.56617
   C      -10.98384       -26.54015        -4.08586
   C      -10.05615       -25.93918        -3.24827
   C       -9.50237       -24.78213        -3.77530
   C      -11.79660       -27.67501        -3.88247
   C      -11.78508       -28.46195        -2.77104
   C      -12.60750       -29.59230        -2.55823
   C      -13.82091       -29.89743        -3.11690
   C      -14.37911       -31.24541        -3.15658
   C      -14.02668       -32.31841        -2.38210
   C      -13.07073       -32.30887        -1.34429
   N      -12.31807       -32.38380        -0.48000
   C      -14.62145       -33.59430        -2.48384
   N      -15.05994       -34.65473        -2.51034
   C      -15.41215       -31.24335        -4.18475
   C      -15.60958       -29.91661        -4.62814
   C      -16.52627       -29.63438        -5.62728
   C      -17.24793       -30.68244        -6.17840
   C      -17.06341       -31.98490        -5.73706
   C      -16.14664       -32.27978        -4.73899
   C      -14.73848       -29.04016        -3.85878
   C      -14.94113       -27.69779        -3.67615
   C      -15.91886       -26.94942        -4.36309
   N      -16.68159       -26.28309        -4.90366
   C      -14.25343       -26.90416        -2.73521
   N      -13.76115       -26.20868        -1.96646
   H       -8.39615         3.25201       -13.82824
   H       -7.62914         4.71517       -12.01479
   H       -7.31062         3.84494        -9.74028
   H       -7.76958         1.48110        -9.22407
   H       -9.19794        -2.19299       -14.15258
   H       -8.18473        -6.57061       -12.34073
   H       -9.39355        -4.73163       -13.72179
   H       -5.34127        -4.16554        -9.24873
   H       -4.20588        -5.99604        -7.81118
   H       -3.24916       -10.54746        -6.09307
   H       -3.42798        -8.09560        -6.87628
   H       -5.74003       -12.90828        -8.01234
   H       -3.66144       -12.81784        -5.74777
   H       -9.02513       -19.13416        -8.65948
   H       -7.55044       -17.03946        -8.38605
   H       -9.97907       -21.34756        -8.48339
   H      -10.91844       -23.58041        -7.56371
   H       -9.80418       -26.33052        -2.28013
   H       -8.77249       -24.17381        -3.27100
   H      -12.46045       -27.92557        -4.70067
   H      -11.03824       -28.27661        -2.01243
   H      -12.18035       -30.33696        -1.89901
   H      -16.67233       -28.62767        -5.98386
   H      -17.96109       -30.47925        -6.96257
   H      -17.63773       -32.78483        -6.17875
   H      -16.01191       -33.29836        -4.41470
*
