# ORCA input file
# SCF done       -200.249010715696          0.000879152041
! CAM-B3LYP def2-SVP def2/J RIJCOSX Grid4 TightSCF
%maxcore 5000
%tddft
    Mode sTDDFT
    Ethresh 5.0
    maxcore 5000
end

%pal
  nprocs 6
  end
* xyz 0 1
   C       -1.82009       -11.99905         6.88414
   C       -0.61967       -11.62342         7.46972
   C       -0.35823       -10.29754         7.77992
   C       -1.29048        -9.30737         7.50970
   C       -2.48469        -9.66751         6.90793
   C       -2.75603       -11.01837         6.59889
   C       -4.07500       -11.10204         5.98143
   C       -4.73298       -12.26524         5.67376
   C       -4.21548       -13.55408         5.92184
   N       -3.86235       -14.63256         6.09612
   C       -6.02408       -12.36710         5.11553
   N       -7.06668       -12.53994         4.66523
   C       -4.52926        -9.73483         5.76530
   C       -3.63617        -8.86769         6.51688
   C       -3.91117        -7.60762         6.99386
   C       -5.15687        -6.96883         6.83988
   N       -6.17098        -6.43501         6.76884
   C       -2.99261        -6.81841         7.71049
   N       -2.26955        -6.10875         8.25251
   C       -5.55382        -9.41558         4.89854
   C       -5.81009        -8.20484         4.22461
   C       -4.89122        -7.17889         4.09356
   C       -5.10482        -5.98517         3.43513
   C       -6.40613        -5.66955         2.83305
   C       -7.43152        -6.55081         2.76814
   S       -7.38198        -8.12980         3.42683
   C       -6.30395        -4.31777         2.41429
   C       -5.04282        -3.80840         2.75863
   C       -4.89530        -2.45374         2.38171
   C       -6.01487        -1.98058         1.77848
   S       -7.29145        -3.14777         1.64095
   C       -4.26765        -4.84193         3.36853
   C       -2.97696        -4.69968         3.93780
   C       -2.10923        -5.72957         4.12685
   C       -0.95929        -5.72001         4.95054
   S       -0.06258        -7.23059         5.09728
   C        0.95506        -6.53647         6.29929
   C        0.61381        -5.19728         6.54532
   C       -0.46066        -4.74003         5.78738
   S        1.62160        -4.46160         7.75797
   C        2.50174        -5.95461         7.93267
   C        3.57743        -6.34463         8.72518
   C        3.93715        -7.66131         8.49781
   S        2.91780        -8.42376         7.28155
   C        2.02168        -6.96662         7.08577
   C        4.98898        -8.41617         9.07185
   C        5.80636        -7.94886        10.04834
   C        6.92681        -8.62707        10.59773
   C        7.69583        -8.01950        11.57013
   C        8.87270        -8.52886        12.09793
   C        9.42585        -9.80134        11.64242
   C        8.81326       -10.60159        10.73923
   S        7.33220       -10.21230         9.96807
   C       10.67696        -9.92651        12.30982
   C       10.91672        -8.79985        13.10095
   C       12.15293        -8.88906        13.77748
   C       12.80436       -10.04518        13.48259
   S       11.95337       -11.07240        12.38278
   C        9.78374        -7.91461        12.99632
   C        9.55565        -6.65838        13.56826
   C       10.47515        -5.83148        14.16424
   C       10.21257        -4.56377        14.69855
   C        9.09215        -3.75224        14.60733
   C        8.77692        -2.73936        15.60293
   C        9.61044        -2.19454        16.54738
   C       10.98088        -2.47937        16.71811
   N       12.09879        -2.64015        16.93003
   C        9.21458        -1.21152        17.47790
   N        8.96898        -0.41071        18.26356
   C        7.37103        -2.38834        15.42488
   C        6.88377        -3.04964        14.27678
   C        5.56643        -2.89873        13.87920
   C        4.73248        -2.09208        14.63950
   C        5.20903        -1.44059        15.76667
   C        6.53017        -1.57789        16.16916
   C        7.98309        -3.79364        13.67838
   C        8.00491        -4.23323        12.37205
   C        6.87179        -4.36286        11.55453
   N        5.98119        -4.60223        10.86497
   C        9.17874        -4.62882        11.70131
   N       10.10762        -4.92602        11.09552
   H       -2.00577       -13.03531         6.65560
   H        0.11991       -12.37852         7.68782
   H        0.58308       -10.02975         8.23471
   H       -1.07714        -8.28145         7.76014
   H       -6.21910       -10.22433         4.62517
   H       -3.92850        -7.34089         4.55083
   H       -8.37263        -6.30792         2.29987
   H       -4.01198        -1.86388         2.54552
   H       -6.18564        -0.99534         1.39066
   H       -2.70278        -3.70590         4.26561
   H       -2.29992        -6.67117         3.62978
   H       -0.87229        -3.75132         5.85919
   H        4.08559        -5.69583         9.41392
   H        5.13404        -9.41458         8.67938
   H        5.64034        -6.95386        10.43729
   H        7.34982        -7.05158        11.90304
   H        9.22864       -11.54471        10.42122
   H       12.55030        -8.15283        14.45121
   H       13.75755       -10.37146        13.85024
   H        8.52913        -6.32136        13.52507
   H       11.48876        -6.18716        14.27289
   H       10.99041        -4.19355        15.35376
   H        5.18303        -3.40265        13.00656
   H        3.70010        -1.97321        14.34772
   H        4.54442        -0.81610        16.34397
   H        6.87989        -1.06182        17.04765
*
