# ORCA input file
# SCF done       -215.837731637511          0.000351014249
! CAM-B3LYP def2-SVP def2/J RIJCOSX Grid4 TightSCF
%maxcore 5000
%tddft
    Mode sTDDFT
    Ethresh 5.0
    maxcore 5000
end

%pal
  nprocs 6
  end
* xyz 0 1
   C       -6.17704        -2.66409         7.84481
   C       -6.13022        -1.46460         7.14972
   C       -5.58138        -1.39385         5.87731
   C       -5.05441        -2.52133         5.26539
   C       -5.09643        -3.72403         5.94988
   C       -5.66369        -3.80167         7.24211
   C       -5.59040        -5.18135         7.70907
   C       -5.94112        -5.62587         8.95664
   C       -6.42663        -4.79260         9.98648
   N       -6.82649        -4.17584        10.86819
   C       -5.83624        -6.95751         9.40929
   N       -5.77693        -8.01765         9.84749
   C       -5.09447        -5.97474         6.59236
   C       -4.59229        -5.04064         5.59439
   C       -3.59335        -5.29347         4.69158
   C       -2.88949        -6.51482         4.63408
   N       -2.25696        -7.47205         4.60024
   C       -3.08710        -4.33702         3.78947
   N       -2.65409        -3.60569         3.01779
   C       -5.20291        -7.33628         6.49471
   C       -5.17809        -8.14362         5.33958
   S       -5.51039        -7.56744         3.72094
   C       -5.36343        -9.16910         3.07016
   C       -5.08347       -10.08789         4.06841
   C       -5.00629        -9.52099         5.33026
   C       -5.51603        -9.41279         1.68568
   C       -5.83733        -8.51523         0.68496
   C       -5.88761        -9.08988        -0.58040
   C       -5.59827       -10.44297        -0.58112
   S       -5.27266       -11.00753         1.02943
   C       -5.52756       -11.32245        -1.69333
   S       -4.99315       -12.96496        -1.50864
   C       -5.15559       -13.26811        -3.21485
   C       -5.61391       -12.13661        -3.86485
   C       -5.81946       -11.05175        -3.01813
   C       -4.79790       -14.54352        -3.72534
   C       -4.85707       -14.91984        -5.02493
   C       -4.43917       -16.19656        -5.48675
   O       -3.93371       -17.10795        -4.58670
   C       -3.60077       -18.18940        -5.30962
   C       -3.03771       -19.47760        -5.16902
   C       -2.59523       -20.07510        -3.89529
   O       -2.10236       -21.17827        -3.76735
   N       -2.79265       -19.25863        -2.83398
   C       -3.02471       -19.97636        -6.48132
   O       -3.54189       -19.07278        -7.36990
   C       -3.88840       -17.98845        -6.65752
   C       -4.43080       -16.70399        -6.77966
   C       -2.58024       -21.19942        -7.04849
   S       -2.75994       -21.42237        -8.76767
   C       -2.03302       -22.99796        -8.67540
   C       -1.68280       -23.30439        -7.37213
   C       -1.98957       -22.29987        -6.46092
   C       -1.85494       -23.80929        -9.82757
   C       -1.24751       -25.05043        -9.89695
   C       -1.23630       -25.59049       -11.17800
   C       -1.83592       -24.77967       -12.12286
   S       -2.42089       -23.30965       -11.39284
   C       -2.00269       -25.03415       -13.50518
   S       -1.40901       -26.49359       -14.22777
   C       -2.00772       -26.01956       -15.79881
   C       -2.63355       -24.78148       -15.72256
   C       -2.62922       -24.23424       -14.44995
   C       -1.83083       -26.88187       -16.89661
   C       -2.25282       -26.63335       -18.17211
   C       -2.04573       -27.56089       -19.20552
   C       -2.52063       -27.48468       -20.49263
   C       -1.97142       -28.22697       -21.61737
   C       -1.17565       -29.34207       -21.57014
   C       -0.77465       -30.01398       -20.39670
   N       -0.41182       -30.61841       -19.48978
   C       -0.67402       -30.00572       -22.70933
   N       -0.23029       -30.59424       -23.58963
   C       -2.42885       -27.55678       -22.82847
   C       -3.33333       -26.53244       -22.46849
   C       -3.90296       -25.72287       -23.43678
   C       -3.56715       -25.94087       -24.76484
   C       -2.68661       -26.95173       -25.12087
   C       -2.10988       -27.76925       -24.16003
   C       -3.51449       -26.56731       -21.02369
   C       -4.57191       -26.01743       -20.34485
   C       -5.51842       -25.15230       -20.93171
   N       -6.30377       -24.42098       -21.33999
   C       -4.92743       -26.32985       -19.01563
   N       -5.30626       -26.57855       -17.96069
   H       -6.60956        -2.69871         8.83105
   H       -6.53064        -0.57359         7.60870
   H       -5.56292        -0.44975         5.35461
   H       -4.63409        -2.45848         4.27460
   H       -5.41002        -7.88673         7.40376
   H       -4.94942       -11.13481         3.86212
   H       -4.79880       -10.07443         6.22861
   H       -6.02359        -7.47438         0.88367
   H       -6.11534        -8.54026        -1.47505
   H       -5.78807       -12.10085        -4.92468
   H       -6.17172       -10.09319        -3.35325
   H       -4.43500       -15.25695        -2.99813
   H       -5.21980       -14.24694        -5.78608
   H       -3.19307       -18.34191        -2.92118
   H       -2.51492       -19.58894        -1.92534
   H       -4.76923       -16.19977        -7.65989
   H       -1.22081       -24.23332        -7.09324
   H       -1.79848       -22.34852        -5.40463
   H       -0.82533       -25.54253        -9.04053
   H       -0.80933       -26.54567       -11.42795
   H       -3.09067       -24.30611       -16.57083
   H       -3.06880       -23.28626       -14.19425
   H       -1.34853       -27.82931       -16.69102
   H       -2.72934       -25.69104       -18.39479
   H       -1.37956       -28.37996       -18.97085
   H       -4.58454       -24.93048       -23.17342
   H       -3.99844       -25.31294       -25.52943
   H       -2.44144       -27.10550       -26.16066
   H       -1.42507       -28.54704       -24.45500
*
