# ORCA input file
# SCF done       -239.259385049842          0.000862200309
! CAM-B3LYP def2-SVP def2/J RIJCOSX Grid4 TightSCF
%maxcore 5000
%tddft
    Mode sTDDFT
    Ethresh 5.0
    maxcore 5000
end

%pal
  nprocs 6
  end
* xyz 0 1
   C        5.96528       -13.72360        -3.15256
   C        5.87484       -13.44781        -1.81405
   C        6.55711       -14.17350        -0.81650
   N        7.07551       -14.74744         0.03139
   C        5.16289       -12.35043        -1.28562
   N        4.66144       -11.43874        -0.80114
   C        6.90414       -14.66058        -3.76411
   C        7.04701       -14.33744        -5.12635
   C        7.90369       -15.03840        -5.95031
   C        8.62673       -16.09281        -5.40623
   C        8.48101       -16.42720        -4.05501
   C        7.62459       -15.71306        -3.22457
  Cl        9.37072       -17.74258        -3.40138
  Cl        9.70185       -16.99021        -6.40050
   C        6.15416       -13.20563        -5.46286
   O        6.05260       -12.62953        -6.52036
   C        5.35886       -12.96470        -4.22947
   C        4.22998       -12.21395        -4.28583
   C        3.14238       -12.15927        -3.34950
   C        2.39989       -10.97332        -3.23132
   C        1.35838       -10.91790        -2.34182
   C        0.99333       -12.05158        -1.59225
   C        1.69500       -13.24185        -1.73349
   C        2.76868       -13.28290        -2.59644
   C       -0.15938       -11.71785        -0.78524
   C       -0.49689       -10.37511        -1.02562
   C        0.45630        -9.75237        -2.01694
   C        1.25581        -8.60063        -1.37706
   C        2.03152        -9.03215        -0.13831
   C       -0.28390        -9.24000        -3.26579
   C       -1.09983       -10.32665        -3.95597
   C       -1.58541        -9.80629        -0.40898
   C       -2.37477       -10.58173         0.44642
   C       -2.02347       -11.91222         0.68745
   C       -0.91887       -12.48493         0.08686
   C       -3.59158       -10.00466         1.02744
   C       -4.75861       -10.72093         1.03577
   C       -5.95723       -10.11763         1.47807
   C       -7.26061       -10.58953         1.50652
   C       -7.69551       -11.98016         1.17474
   C       -8.20706       -12.68711         2.44331
   N       -8.27688       -14.12357         2.22841
   C       -8.69254       -12.04570        -0.00615
   N      -10.08084       -11.83297         0.38429
   C       -8.08695        -9.49323         1.94946
   C       -9.42514        -9.36139         2.02217
   C      -10.05568        -8.05659         2.36958
   C       -9.10079        -7.01801         2.87139
   C       -7.76525        -7.16056         2.77348
   C       -7.20982        -8.35543         2.25860
   C       -5.91884        -8.74077         1.94947
   C       -4.68665        -8.05018         1.98355
   C       -3.56517        -8.66391         1.52462
   C      -11.23065        -8.24478         3.29056
   C      -12.47349        -7.91313         2.94492
   C      -13.69357        -8.07134         3.71781
   C      -13.71623        -8.61600         5.00810
   C      -14.91797        -8.78837         5.65663
   C      -16.11201        -8.36498         5.04714
   C      -16.10316        -7.80319         3.77877
   C      -14.89721        -7.67310         3.12373
   C      -17.20882        -8.61591         5.95029
   C      -16.70216        -9.19070         7.13016
   C      -15.19620        -9.35455         7.03644
   C      -14.88437       -10.86343         7.12938
   C      -13.41999       -11.25536         6.97932
   C      -14.43782        -8.49314         8.06788
   C      -14.59153        -8.89819         9.52796
   C      -17.55994        -9.57805         8.13152
   C      -18.94079        -9.36280         7.98188
   C      -19.42738        -8.80462         6.78616
   C      -18.57395        -8.41908         5.77881
   C      -19.90875        -9.75321         8.96642
   C      -19.79181        -9.81118        10.32222
   C      -20.82695       -10.30109        11.22152
   C      -21.93367       -11.03281        10.87744
   C      -22.90064       -11.48363        11.80104
   N      -23.72583       -11.87440        12.49677
   C      -22.26254       -11.46318         9.57431
   N      -22.59785       -11.86995         8.55394
   C      -20.44549        -9.93492        12.58009
   C      -19.20017        -9.28520        12.54161
   C      -18.72457        -9.18918        11.14515
   O      -17.70673        -8.64301        10.78002
   C      -18.58213        -8.82360        13.68587
   C      -19.22165        -9.01726        14.90321
   C      -20.46393        -9.66069        14.95205
   C      -21.08324       -10.12265        13.79682
  Cl      -21.24739        -9.88657        16.46364
  Cl      -18.48442        -8.46305        16.35195
   H        8.00780       -14.77244        -6.99031
   H        7.53249       -15.99780        -2.18896
   H        4.11360       -11.62714        -5.19217
   H        2.68540       -10.11093        -3.81542
   H        1.40694       -14.12164        -1.17811
   H        3.30752       -14.20953        -2.73559
   H        0.55832        -7.80231        -1.11263
   H        1.95134        -8.20443        -2.11981
   H        1.35748        -9.42687         0.61902
   H        2.55964        -8.17994         0.28305
   H        2.76143        -9.79926        -0.38379
   H        0.44894        -8.83548        -3.96689
   H       -0.94638        -8.42428        -2.96923
   H       -0.45765       -11.14273        -4.28005
   H       -1.60492        -9.91873        -4.82852
   H       -1.85121       -10.72958        -3.28043
   H       -1.86117        -8.78097        -0.60822
   H       -2.62476       -12.49592         1.36907
   H       -0.65838       -13.51348         0.28758
   H       -4.77759       -11.72872         0.64679
   H       -6.80830       -12.53388         0.85375
   H       -9.15901       -12.23284         2.75727
   H       -7.47816       -12.51419         3.24032
   H       -9.00752       -14.35662         1.56500
   H       -8.48279       -14.60388         3.09681
   H       -8.55146       -13.01204        -0.51565
   H       -8.42485       -11.25706        -0.71444
   H      -10.44677       -12.65253         0.85755
   H      -10.65030       -11.68075        -0.44062
   H      -10.08349       -10.17147         1.73947
   H      -10.45911        -7.67393         1.41482
   H       -9.54519        -6.11807         3.26888
   H       -7.10244        -6.36904         3.09352
   H       -4.65202        -7.03749         2.35863
   H       -2.61582        -8.14866         1.54377
   H      -10.99313        -8.67034         4.25397
   H      -12.62952        -7.48429         1.96090
   H      -12.78758        -8.89036         5.48161
   H      -17.02052        -7.47416         3.31432
   H      -14.87433        -7.24670         2.13081
   H      -15.46513       -11.36839         6.35213
   H      -15.25154       -11.22215         8.09194
   H      -13.05969       -11.04242         5.97680
   H      -13.31532       -12.32472         7.15246
   H      -12.79439       -10.73529         7.69953
   H      -14.78556        -7.46333         7.95082
   H      -13.37866        -8.50786         7.80253
   H      -15.61456        -8.77098         9.86627
   H      -13.95738        -8.26034        10.14065
   H      -14.28550        -9.92844         9.69075
   H      -17.19903       -10.08514         9.00938
   H      -20.49276        -8.66600         6.67161
   H      -18.95793        -7.98969         4.86590
   H      -20.88110        -9.99522         8.55238
   H      -17.62629        -8.32682        13.63185
   H      -22.04180       -10.60876        13.87350
*
