# ORCA input file
# SCF done       -187.708587318013          0.000773523314
! CAM-B3LYP def2-SVP def2/J RIJCOSX Grid4 TightSCF
%maxcore 5000
%tddft
    Mode sTDDFT
    Ethresh 5.0
    maxcore 5000
end

%pal
  nprocs 6
  end
* xyz 0 1
   C       -0.46706         0.51522        -2.04944
   C       -0.64891        -0.78949        -2.39808
   C        0.28996        -1.64521        -1.80052
   C        1.17891        -0.95004        -0.99801
   S        0.86023         0.74516        -0.98012
   C        2.18731        -1.69251        -0.32793
   C        2.20188        -3.06963        -0.51209
  Ge        0.73765        -3.56232        -1.73763
   C        1.41467        -4.29445        -3.45322
   C       -0.65742        -4.68564        -0.88671
   C        3.24112        -3.67909         0.18118
   C        4.02313        -2.79064         0.89575
   S        3.44029        -1.15173         0.71358
   C        5.19205        -3.06440         1.67718
   C        5.46899        -2.14391         2.79371
   C        6.71203        -1.52025         2.92141
   C        6.96680        -0.59524         3.92444
   C        5.96499        -0.26702         4.83486
   C        4.71815        -0.87585         4.73129
   C        4.48283        -1.79902         3.71912
   F        3.28782        -2.39539         3.66291
   F        3.75551        -0.57736         5.60493
   F        6.20068         0.62038         5.79984
   F        8.16503        -0.01620         4.01590
   F        7.68665        -1.80562         2.05213
   C        6.04965        -4.10179         1.40209
   C        6.00012        -4.80077         0.10846
   C        5.96261        -4.10039        -1.10312
   C        5.89804        -4.75181        -2.32657
   C        5.89709        -6.14433        -2.37486
   C        5.96595        -6.86719        -1.18847
   C        6.01692        -6.19632         0.02829
   F        6.04825        -6.92228         1.15197
   F        5.97044        -8.20115        -1.21856
   F        5.83023        -6.77626        -3.54660
   F        5.83950        -4.04846        -3.45916
   F        5.99385        -2.76573        -1.09841
   C        7.00963        -4.56772         2.36783
   N        8.19194        -5.14896         2.02134
   C        8.87034        -5.52662         3.14327
   C        8.08597        -5.18835         4.24428
   C        6.93273        -4.58424         3.76037
   C       10.11355        -6.14197         3.11444
   C       11.19901        -6.68440         3.11413
   C       12.43899        -7.32318         3.14602
   C       13.25109        -7.43145         2.02723
   C       14.48228        -8.08390         2.06905
   C       14.96680        -8.68755         3.21953
   C       14.16573        -8.60187         4.39359
   C       12.90346        -7.90557         4.36067
   N       12.26088        -7.87277         5.51900
  Se       13.21811        -8.71357         6.71998
   N       14.49089        -9.07929         5.58484
   C       16.19466        -9.43760         3.23149
   N       16.29260       -10.57834         3.88572
   C       17.52774       -11.05012         3.62292
   C       18.27609       -10.12525         2.74494
   C       19.62156       -10.65865         2.47012
   O       20.50039       -10.18537         1.78201
   C       19.62809       -11.92282         3.22785
   C       18.33066       -12.12291         3.90940
   N       18.33601       -13.28380         4.61228
   C       19.52486       -13.79667         4.41656
   C       20.38461       -12.99759         3.56657
   C       17.43777        -9.07316         2.50410
   C       17.66781        -7.82884         1.81916
   C       18.75735        -7.58031         1.09215
   H       -1.03793         1.36950        -2.35716
   H       -1.43025        -1.12295        -3.05834
   H        0.61516        -4.33190        -4.18653
   H        1.79445        -5.30136        -3.30816
   H        2.21397        -3.67128        -3.84232
   H       -0.96652        -4.24936         0.05780
   H       -0.27398        -5.68424        -0.70157
   H       -1.52392        -4.76308        -1.53608
   H        3.39697        -4.74368         0.20317
   H        8.54300        -5.24506         1.08254
   H        8.34087        -5.37427         5.26797
   H        6.10470        -4.23748         4.34571
   H       12.91256        -7.00486         1.09452
   H       15.04844        -8.17138         1.15360
   H       19.79205       -14.73599         4.86938
   H       21.39133       -13.24224         3.29065
   H       16.90700        -7.06888         1.94553
   H       19.53081        -8.31897         0.96327
   H       18.90342        -6.62834         0.61062
*
