# ORCA input file
# SCF done       -204.877687129212          0.000915306083
! CAM-B3LYP def2-SVP def2/J RIJCOSX Grid4 TightSCF
%maxcore 5000
%tddft
    Mode sTDDFT
    Ethresh 5.0
    maxcore 5000
end

%pal
  nprocs 6
  end
* xyz 0 1
   C       -2.24704        -0.32975        -0.08894
   C       -1.91866         0.38015        -1.34841
   O       -1.94766        -0.02129        -2.49121
   C       -1.48977         1.73732        -0.94005
   C       -1.59175         1.87397         0.45295
   C       -2.09915         0.62398         1.00726
   C       -2.43282         0.43511         2.32334
   C       -2.28109         1.41852         3.32505
   N       -2.18960         2.16494         4.19235
   C       -2.99633        -0.72571         2.89630
   N       -3.46284        -1.60925         3.46418
   C       -1.22668         3.07488         1.04694
   C       -0.77315         4.10834         0.24276
   C       -0.68314         3.95395        -1.13670
   C       -1.04074         2.75963        -1.75025
  Cl       -0.11699         5.26711        -2.09747
   C       -2.53033        -1.64788         0.13233
   C       -2.80422        -2.77551        -0.70256
   C       -2.90847        -4.01128        -0.03583
   C       -3.21456        -5.13995        -0.76301
   C       -3.43457        -5.07415        -2.16655
   C       -3.33648        -3.84787        -2.81900
   C       -3.02469        -2.72109        -2.09625
   C       -3.73267        -6.40450        -2.58702
   C       -3.67330        -7.21769        -1.42499
   N       -3.37244        -6.43677        -0.33743
   C       -3.22667        -6.87859         1.02058
   C       -3.90782        -8.58188        -1.49760
   C       -4.22782        -9.13707        -2.72988
   C       -4.29785        -8.32740        -3.87544
   C       -4.04613        -6.97637        -3.81731
   C       -4.49830       -10.57740        -2.82875
   C       -3.68142       -11.50174        -2.18058
   C       -3.94425       -12.85374        -2.25999
   C       -5.05256       -13.32242        -2.96325
   C       -5.86002       -12.39934        -3.62645
   C       -5.58223       -11.05008        -3.56653
   C       -5.33999       -14.76399        -3.02687
   C       -4.18216       -15.62488        -3.31451
   C       -3.26046       -15.25510        -4.29240
   C       -2.15916       -16.04754        -4.55565
   C       -1.95271       -17.21348        -3.83738
   C       -2.85246       -17.57958        -2.84952
   C       -3.95755       -16.79306        -2.58796
   C       -6.58466       -15.25460        -2.82424
   C       -6.93247       -16.65943        -3.09058
   C       -6.52596       -17.28810        -4.26618
   C       -6.87658       -18.60070        -4.51631
   C       -7.63869       -19.30658        -3.59963
   C       -8.05869       -18.68704        -2.43437
   C       -7.71524       -17.37192        -2.18404
   C       -7.68017       -14.41467        -2.31784
   C       -8.95955       -14.51133        -2.86267
   C       -9.99084       -13.72840        -2.38516
   C       -9.77978       -12.82565        -1.34519
   C       -8.50552       -12.74765        -0.78526
   C       -7.47553       -13.53208        -1.25766
   C      -10.86820       -11.97774        -0.84062
   C      -12.13443       -12.51318        -0.63714
   C      -13.12915       -11.68509        -0.14230
   C      -12.87342       -10.32249         0.14563
   C      -11.60611        -9.79745        -0.07291
   C      -10.61876       -10.62711        -0.55740
   C      -14.10012        -9.77890         0.64710
   C      -15.03994       -10.84021         0.64233
   N      -14.44004       -11.97489         0.15201
   C      -15.06019       -13.25821        -0.01047
   C      -16.33621       -10.64848         1.09138
   C      -16.70141        -9.38214         1.53056
   C      -15.77176        -8.33431         1.53727
   C      -14.47883        -8.52101         1.09732
   C      -18.05263        -9.14607         2.05183
   C      -18.24210        -8.56261         3.32970
   C      -19.55101        -8.48375         3.69872
   S      -20.27327        -7.85919         5.16480
   C      -18.80377        -7.30610         6.07647
   S      -20.59891        -9.12170         2.47656
   C      -19.23601        -9.49582         1.44309
   C      -19.53026       -10.02174         0.13430
   C      -18.72801        -9.99484        -0.92660
   H       -1.28170         3.21999         2.11309
   H       -0.48436         5.04669         0.68967
   H       -0.97424         2.62618        -2.81845
   H       -2.55571        -1.91701         1.18267
   H       -2.74687        -4.06167         1.03090
   H       -3.50589        -3.78388        -3.88286
   H       -2.94602        -1.77488        -2.60106
   H       -3.71800        -7.84123         1.14533
   H       -3.69342        -6.16051         1.69614
   H       -2.17146        -6.98203         1.29172
   H       -3.86903        -9.20990        -0.62025
   H       -4.53186        -8.78995        -4.82247
   H       -4.08995        -6.36538        -4.70601
   H       -2.81927       -11.15503        -1.62888
   H       -3.29838       -13.56022        -1.75757
   H       -6.70778       -12.74953        -4.19685
   H       -6.22631       -10.34773        -4.07534
   H       -3.42126       -14.34614        -4.85518
   H       -1.45762       -15.75372        -5.32301
   H       -1.09103       -17.83150        -4.04225
   H       -2.68958       -18.48140        -2.27742
   H       -4.64920       -17.07486        -1.80766
   H       -5.94184       -16.73707        -4.98861
   H       -6.55649       -19.07539        -5.43243
   H       -7.90862       -20.33385        -3.79541
   H       -8.65764       -19.23111        -1.71832
   H       -8.04149       -16.88980        -1.27303
   H       -9.13644       -15.19623        -3.68030
   H      -10.96930       -13.79829        -2.83847
   H       -8.33142       -12.08019         0.04617
   H       -6.50145       -13.47495        -0.79446
   H      -12.31854       -13.55889        -0.83307
   H      -11.40102        -8.75821         0.13602
   H       -9.63134       -10.23194        -0.74548
   H      -16.13993       -13.13503        -0.07593
   H      -14.83010       -13.92103         0.83035
   H      -14.70711       -13.72529        -0.93093
   H      -17.05949       -11.44951         1.11099
   H      -16.08883        -7.36064         1.88074
   H      -13.77074        -7.70603         1.10264
   H      -17.41761        -8.24533         3.94155
   H      -19.17173        -6.89137         7.00951
   H      -18.28590        -6.54016         5.50704
   H      -18.15491        -8.15374         6.27579
   H      -20.53024       -10.42700         0.03576
   H      -17.74115        -9.56802        -0.89070
   H      -19.04788       -10.39734        -1.87199
*
