# ORCA input file
# SCF done       -178.029536183899          0.000318088109
! CAM-B3LYP def2-SVP def2/J RIJCOSX Grid4 TightSCF
%maxcore 5000
%tddft
    Mode sTDDFT
    Ethresh 5.0
    maxcore 5000
end

%pal
  nprocs 6
  end
* xyz 0 1
   C       -6.47209       -10.23058         5.12863
   N       -5.50094       -11.12418         5.04625
   C       -4.79114       -11.11726         3.92649
   C       -5.04327       -10.22692         2.89804
   C       -6.09355        -9.32032         3.08880
   N       -6.80383        -9.33706         4.22329
   C       -6.43438        -8.34572         2.07349
   C       -7.46951        -7.50196         2.22297
   C       -7.90107        -6.49461         1.30423
   C       -7.47268        -6.16801         0.03562
   C       -6.41723        -6.91294        -0.71272
   O       -6.55113        -8.01345        -1.16041
   O       -5.25677        -6.23804        -0.85100
   C       -8.13687        -5.02692        -0.50731
   C       -9.06439        -4.52025         0.37149
   S       -9.14237        -5.39188         1.83561
   C       -7.89622        -4.45971        -1.81242
   S       -7.28835        -5.43988        -3.12892
   C       -7.32747        -4.07385        -4.16460
   C       -7.79033        -2.92731        -3.52788
   C       -8.12172        -3.15253        -2.19411
   C       -7.78242        -1.74759        -4.47232
   C       -9.19956        -1.21815        -4.71077
   C       -6.86534        -0.63076        -3.96770
   C       -7.22553        -2.39757        -5.71836
   C       -6.98825        -3.75460        -5.50235
   S       -6.35948        -4.53956        -6.88684
   C       -6.38417        -3.02294        -7.77269
   C       -6.88078        -1.98527        -6.99796
   C       -5.89095        -3.00619        -9.10323
   C       -5.67200        -1.88517        -9.82940
   C       -5.12912        -1.84298       -11.15225
   C       -4.93510        -2.92345       -11.99927
   C       -4.35653        -2.81678       -13.26885
   C       -3.90980        -1.62148       -13.80710
   C       -4.09863        -0.48274       -12.98190
   C       -4.71234        -0.59031       -11.68294
   N       -4.75596         0.62344       -11.17163
   O       -4.21314         1.43219       -12.08089
   N       -3.81065         0.78833       -13.17550
   C       -3.27423        -1.50606       -15.08852
   C       -3.20531        -2.44242       -16.08089
   C       -2.46103        -2.02346       -17.20956
   C       -2.23069        -2.72395       -18.41013
   C       -2.70855        -4.07255       -18.63795
   C       -3.20107        -4.59946       -19.79714
   C       -3.51777        -5.97074       -19.68551
   C       -3.26513        -6.51293       -18.45995
   S       -2.62877        -5.29976       -17.40050
   C       -3.46899        -7.90870       -17.99653
  Cl       -4.16861        -6.87107       -21.00150
   C       -1.49346        -2.05590       -19.38463
   C       -0.97694        -0.74937       -19.21442
   C       -1.21409        -0.04800       -18.01925
   C       -1.95547        -0.71008       -17.04351
   S       -2.42644        -0.03643       -15.50780
   C       -0.72197         1.29578       -17.78469
   C       -0.20898         1.80390       -16.62648
   C        0.13121         3.17001       -16.73194
   C       -0.12546         3.72510       -17.95095
   S       -0.79751         2.53237       -19.01125
   C        0.09916         5.12049       -18.40581
  Cl        0.81535         4.04794       -15.41852
   C       -0.19716        -0.34477       -20.33828
   C       -0.13439        -1.28416       -21.30264
   S       -1.01692        -2.72137       -20.92451
   H       -7.05619       -10.23379         6.04079
   H       -3.99791       -11.85166         3.86416
   H       -4.46532       -10.22805         1.98800
   H       -5.81411        -8.34743         1.19113
   H       -8.03551        -7.56899         3.14319
   H       -5.29575        -5.34863        -0.47458
   H       -9.71799        -3.68651         0.21255
   H       -8.48417        -2.40195        -1.51543
   H       -9.61109        -0.82181        -3.78572
   H       -9.84614        -2.01718        -5.06638
   H       -9.18191        -0.42626        -5.45532
   H       -7.24554        -0.22787        -3.03214
   H       -6.81606         0.17065        -4.70046
   H       -5.86064        -1.01285        -3.80160
   H       -6.98340        -0.98175        -7.36744
   H       -5.64481        -3.97417        -9.51823
   H       -5.86311        -0.91619        -9.39151
   H       -5.24253        -3.90511       -11.67343
   H       -4.23698        -3.72099       -13.84561
   H       -3.69492        -3.39585       -16.02031
   H       -3.36800        -4.03255       -20.69373
   H       -3.86978        -8.50794       -18.81018
   H       -4.16486        -7.93890       -17.15856
   H       -2.52694        -8.34503       -17.66581
   H       -0.04524         1.22749       -15.73547
   H        0.55778         5.69504       -17.60487
   H       -0.84398         5.59080       -18.68293
   H        0.75291         5.14102       -19.27714
   H        0.30084         0.60408       -20.40672
   H        0.38279        -1.23281       -22.24065
*
