# ORCA input file
# SCF done       -144.403805663654          0.000560536966
! CAM-B3LYP def2-SVP def2/J RIJCOSX Grid4 TightSCF
%maxcore 5000
%tddft
    Mode sTDDFT
    Ethresh 5.0
    maxcore 5000
end

%pal
  nprocs 6
  end
* xyz 0 1
   C       -0.73678        -3.53448        -6.31722
   N        0.00610        -2.71983        -5.58681
   C       -0.42163        -2.49064        -4.35133
   C       -1.57396        -3.06423        -3.85017
   C       -2.28839        -3.91401        -4.70802
   N       -1.84561        -4.13817        -5.95389
   C       -3.50113        -4.56517        -4.28280
   C       -4.19630        -5.40028        -5.08214
   C       -5.38894        -6.07880        -4.72470
   S       -6.12803        -5.87813        -3.14392
   C       -7.37158        -6.97440        -3.57740
   C       -7.22599        -7.46911        -4.87320
   C       -6.10716        -6.96004        -5.51815
   C       -8.33835        -8.43725        -5.20417
   C       -9.18780        -7.93121        -6.37330
   C       -7.78880        -9.83548        -5.49931
   C       -9.11668        -8.41434        -3.90881
   C       -8.52350        -7.54797        -2.98997
   S       -9.36413        -7.48431        -1.49738
   C      -10.53337        -8.64416        -2.10191
   C      -10.25126        -9.03295        -3.40370
   C      -11.60791        -9.10051        -1.29881
   C      -11.85381        -8.68825        -0.03460
   C      -12.91349        -9.17460         0.77601
   C      -13.25342        -8.76049         2.05411
   C      -12.56905        -7.62067         2.70281
   O      -11.38913        -7.40630         2.62836
   O      -13.37262        -6.76432         3.36796
   C      -14.36973        -9.47886         2.59186
   C      -14.86815       -10.38385         1.69273
   S      -14.01231       -10.40480         0.21096
   C      -14.86993        -9.36339         3.94151
   S      -16.53628        -9.78586         4.29331
   C      -16.27432        -9.45088         5.95677
   C      -14.97173        -9.04805         6.21993
   C      -14.17464        -9.00487         5.07663
   C      -14.78767        -8.74828         7.68818
   C      -13.73147        -9.65719         8.32098
   C      -14.43184        -7.27383         7.90208
   C      -16.17280        -9.06010         8.20627
   C      -17.00956        -9.46447         7.16923
   S      -18.59664        -9.83330         7.70201
   C      -18.14190        -9.43927         9.35078
   C      -16.81765        -9.04516         9.43768
   C      -19.06868        -9.53952        10.42255
   C      -20.34509        -9.95360        10.31305
   C      -21.23847       -10.04251        11.44377
   N      -20.78511        -9.66911        12.64689
   C      -21.62674        -9.76309        13.65706
   C      -22.92451       -10.22590        13.50925
   C      -23.31319       -10.59770        12.21746
   N      -22.46372       -10.49885        11.19927
   C      -24.65456       -11.10504        11.95062
   C      -25.05359       -11.49472        10.74669
   H       -0.39260        -3.72506        -7.32683
   H        0.18970        -1.82369        -3.75603
   H       -1.91431        -2.87265        -2.84494
   H       -3.83857        -4.35857        -3.27582
   H       -3.81945        -5.57935        -6.08045
   H       -5.80364        -7.20579        -6.51991
   H       -8.58715        -7.88312        -7.27825
   H       -9.57353        -6.93744        -6.15734
   H      -10.02667        -8.60165        -6.54337
   H       -7.16719        -9.81217        -6.39096
   H       -8.60750       -10.53267        -5.65965
   H       -7.18807       -10.18878        -4.66428
   H      -10.86150        -9.73947        -3.93738
   H      -12.25709        -9.83798        -1.75650
   H      -11.20715        -7.95675         0.43093
   H      -14.29511        -7.05447         3.37885
   H      -15.68787       -11.05786         1.84425
   H      -13.13093        -8.74638         5.06949
   H      -12.75880        -9.46502         7.87498
   H      -13.98822       -10.70240         8.16354
   H      -13.67083        -9.47030         9.39019
   H      -13.47771        -7.04808         7.43248
   H      -14.36208        -7.05697         8.96498
   H      -15.19502        -6.63365         7.46514
   H      -16.36245        -8.76529        10.37064
   H      -18.70141        -9.26049        11.40130
   H      -20.76453       -10.24875         9.36197
   H      -21.24138        -9.45494        14.62177
   H      -23.60104       -10.29793        14.34552
   H      -25.31572       -11.14896        12.80609
   H      -24.37840       -11.44279         9.90994
   H      -26.04684       -11.86836        10.56571
*
