# ORCA input file
# SCF done       -209.725617910143          0.000819295535
! CAM-B3LYP def2-SVP def2/J RIJCOSX Grid4 TightSCF
%maxcore 5000
%tddft
    Mode sTDDFT
    Ethresh 5.0
    maxcore 5000
end

%pal
  nprocs 6
  end
* xyz 0 1
   C       10.26115         5.27844        -1.66223
   C       11.03138         6.34840        -2.00316
   S       12.68395         5.88383        -2.17519
   C       12.34531         4.23960        -1.78473
   C       11.02098         4.07082        -1.53941
   C       10.13761         2.95944        -1.17181
   O       10.46780         1.81840        -0.94385
   C        8.77701         3.57724        -1.05187
   C        8.86899         4.99136        -1.38620
   C        7.84793         5.89848        -1.49085
   C        8.09904         7.23914        -1.85032
   N        8.29340         8.33322        -2.13627
   C        6.48073         5.62766        -1.28546
   N        5.35107         5.47891        -1.14498
   C        7.68418         2.96035        -0.52804
   C        7.58795         1.55990        -0.25809
   N        8.22803         0.68370        -1.02591
   N        8.30417        -0.56233        -0.74087
   C        7.71200        -1.13283         0.30663
   C        6.81377        -0.34533         1.08037
   C        6.78172         1.06201         0.80406
   N        5.98122         1.71848         1.63628
   S        5.31112         0.66382         2.64911
   N        6.02536        -0.67382         2.09944
   C        8.03972        -2.49672         0.60237
   C        7.08624        -3.22113         1.45619
   C        7.46725        -3.73848         2.69478
   C        6.55108        -4.34752         3.54210
   C        5.21565        -4.44225         3.16275
   C        4.80981        -3.92634         1.93586
   C        5.74107        -3.32132         1.10222
   F        5.33468        -2.83407        -0.07239
   F        3.52940        -4.01366         1.56833
   F        4.32909        -5.02393         3.97196
   F        6.94478        -4.83741         4.72072
   F        8.74312        -3.65026         3.08120
   C        9.21674        -3.04445         0.13313
   C       10.23989        -2.12363        -0.42690
   C       10.85946        -1.18528         0.40007
   C       11.85588        -0.34181        -0.06800
   C       12.24690        -0.41728        -1.40135
   C       11.65073        -1.35007        -2.24231
   C       10.67216        -2.20389        -1.74742
   F       10.12967        -3.11419        -2.56327
   F       12.03853        -1.43989        -3.51821
   F       13.19927         0.39372        -1.86598
   F       12.44944         0.52416         0.75314
   F       10.48037        -1.09255         1.68093
   C        9.56861        -4.41293         0.15959
   S        8.41837        -5.68712         0.55010
   C        9.62873        -6.87468         0.31197
   C       10.86020        -6.31903        -0.07243
   C       10.82444        -4.94522        -0.15232
   C       11.89049        -7.40464        -0.27897
   C       12.35185        -7.45350        -1.73879
   C       13.08458        -7.23118         0.66308
   C       11.07867        -8.62698         0.08286
   C        9.76453        -8.26596         0.42064
   S        8.80810        -9.61253         0.88803
   C       10.17814       -10.68390         0.63109
   C       11.30441        -9.98338         0.18925
   C       10.09579       -12.06057         0.89035
   C        9.00980       -12.68092         1.44920
   C        8.94912       -14.04579         1.73625
   C        7.89386       -14.65685         2.37592
   C        7.78140       -16.02899         2.70543
   C        6.63938       -16.35414         3.37075
   C        5.78163       -15.25399         3.60736
   S        6.47648       -13.79108         2.93788
   C        4.57398       -15.25062         4.27026
   C        3.91917       -16.36289         4.87073
   C        2.74591       -16.06017         5.46907
   C        2.37940       -14.67534         5.38577
   S        3.63113       -13.79557         4.49300
   C        1.28444       -14.08426         5.88304
   H       10.75096         7.37060        -2.16003
   H       13.13174         3.51161        -1.76675
   H        6.82382         3.54436        -0.22703
   H       11.66521        -4.32561        -0.40645
   H       12.86264        -6.53026        -1.99960
   H       11.49870        -7.57718        -2.40161
   H       13.03385        -8.28702        -1.88685
   H       13.60989        -6.30789         0.43295
   H       13.77357        -8.06431         0.54981
   H       12.74892        -7.19316         1.69682
   H       12.23648       -10.47714        -0.01874
   H       10.97439       -12.64674         0.65321
   H        8.14755       -12.07821         1.70888
   H        9.78761       -14.67073         1.45729
   H        8.55196       -16.73173         2.44117
   H        6.39325       -17.34814         3.69806
   H        4.34628       -17.34933         4.83809
   H        2.11234       -16.76604         5.97592
   H        0.54846       -14.65561         6.42075
   H        1.10640       -13.03126         5.76388
*
