# ORCA input file
# SCF done       -228.875036176428          0.000854192065
! CAM-B3LYP def2-SVP def2/J RIJCOSX Grid4 TightSCF
%maxcore 5000
%tddft
    Mode sTDDFT
    Ethresh 5.0
    maxcore 5000
end

%pal
  nprocs 6
  end
* xyz 0 1
   C        0.93914        -2.61890         3.58670
   C       -0.32467        -2.20640         3.87816
   S       -1.17669        -3.41748         4.76301
   C        0.17707        -4.48763         4.74942
   C        1.22127        -3.92981         4.08787
   C        2.60137        -4.29852         3.74820
   O        3.19445        -5.29906         4.10260
   C        3.11649        -3.16348         2.94000
   C        2.11866        -2.11016         2.91609
   C        2.21719        -0.83829         2.39968
   C        1.13002         0.05734         2.45887
   N        0.25698         0.80175         2.49378
   C        3.35495        -0.26257         1.81212
   N        4.26308         0.26787         1.34401
   C        4.33304        -3.03434         2.30766
   C        5.39980        -3.93054         2.12897
   C        5.23804        -5.36704         2.41607
   C        6.03722        -6.03036         3.34528
   C        5.84121        -7.37203         3.64718
   C        4.83390        -8.08573         3.00686
   C        4.03255        -7.44932         2.06446
   C        4.24108        -6.10693         1.78076
   F        3.45888        -5.50840         0.87518
   F        3.07009        -8.13034         1.43769
   F        4.64395        -9.37574         3.28717
   F        6.62359        -7.98075         4.54267
   F        7.00861        -5.36425         3.97850
   C        6.62701        -3.45741         1.63894
   C        6.80651        -1.99122         1.47822
   C        6.94040        -1.16213         2.58911
   C        7.15068         0.20481         2.45348
   C        7.22088         0.76695         1.18372
   C        7.07253        -0.03765         0.05931
   C        6.86165        -1.40246         0.21642
   F        6.72595        -2.17205        -0.86705
   F        7.15534         0.50000        -1.15852
   F        7.44268         2.07333         1.04680
   F        7.29778         0.97522         3.53162
   F        6.87889        -1.69284         3.81205
   C        7.69030        -4.30188         1.32689
   C        9.00123        -3.96681         1.02057
   C       10.02984        -4.91144         0.81836
   C       11.26553        -4.36702         0.60216
   C       11.26622        -2.96184         0.59659
   S        9.65380        -2.35155         0.89628
   C       12.33128        -2.09887         0.37879
   C       13.69885        -2.42678         0.26320
   C       14.50519        -1.34505         0.07333
   C       13.81395        -0.11038        -0.00219
   S       12.09369        -0.37915         0.21420
   C       14.39161         1.11525        -0.22335
   C       13.74920         2.34733        -0.42066
   C       14.38653         3.55506        -0.63387
   C       13.51858         4.62682        -0.87980
   C       12.14842         4.24197        -0.86296
   S       12.01016         2.52862        -0.49905
   C       11.14010         5.15119        -1.13015
   O        9.81316         4.95933        -1.16632
   C        9.25724         3.69656        -0.87369
   C       11.55311         6.47941        -1.42150
   C       12.92224         6.87046        -1.41612
   C       13.92821         5.96021        -1.14115
   O       15.26408         6.15704        -1.09129
   C       15.80585         7.44278        -1.29599
   S       13.05189         8.56777        -1.81500
   C       11.30751         8.72248        -2.00038
   C       10.67783         7.52671        -1.74871
   C       10.84540        10.00784        -2.36222
   C        9.59827        10.48238        -2.65675
   C        8.30950         9.73296        -2.72414
   O        8.10339         8.56472        -2.47952
   C        7.31742        10.72022        -3.16607
   C        5.98935        10.73320        -3.44511
   S        5.48373        12.31062        -3.92335
   C        7.07231        12.95689        -3.74725
   C        7.94489        11.99445        -3.33778
   C        9.35180        11.87589        -3.01522
   C       10.23282        12.92570        -3.04860
   C        9.80849        14.21823        -3.42480
   N        9.48641        15.27625        -3.73128
   C       11.60470        12.89887        -2.72997
   N       12.72505        12.96869        -2.48496
   H       -0.81742        -1.28565         3.63844
   H        0.11044        -5.44667         5.22248
   H        4.50578        -2.06388         1.86390
   H        7.49856        -5.36587         1.36429
   H        9.83368        -5.96822         0.85135
   H       12.15763        -4.94256         0.43451
   H       14.05069        -3.43945         0.33923
   H       15.57477        -1.39348        -0.02876
   H       15.47260         1.13793        -0.28209
   H       15.45520         3.66654        -0.62214
   H        9.51806         3.36818         0.13445
   H        9.56522         2.94100        -1.60058
   H        8.17971         3.83541        -0.93454
   H       15.43318         8.15908        -0.55994
   H       15.59884         7.81273        -2.30299
   H       16.88097         7.32355        -1.17021
   H        9.61260         7.39561        -1.80220
   H       11.64865        10.73362        -2.42346
   H        5.28230         9.92931        -3.40060
   H        7.24450        13.99311        -3.95819
*
