# ORCA input file
# SCF done       -169.539209369962          0.001114979512
! CAM-B3LYP def2-SVP def2/J RIJCOSX Grid4 TightSCF
%maxcore 5000
%tddft
    Mode sTDDFT
    Ethresh 5.0
    maxcore 5000
end

%pal
  nprocs 6
  end
* xyz 0 1
   C        6.61783         1.74168       -13.70657
   C        6.06295         2.38815       -14.76420
   S        5.90843         1.32749       -16.12160
   C        6.59814         0.00094       -15.25209
   C        6.92306         0.37139       -13.99069
   C        7.52194        -0.24755       -12.79450
   O        7.90273        -1.39771       -12.67865
   C        7.56037         0.83148       -11.78549
   C        7.01054         2.03576       -12.33807
   C        6.86055         3.27369       -11.74522
   C        6.29786         4.35282       -12.44919
   N        5.83975         5.24736       -13.00674
   C        7.22466         3.61869       -10.43348
   N        7.49521         3.98379        -9.37650
   C        8.07885         0.69119       -10.50123
   C        8.64151        -0.46072        -9.99240
   C        9.20973        -0.53512        -8.71951
   C        9.87179        -1.62856        -8.15249
   C       10.39636        -1.37751        -6.90169
   C       10.14912        -0.08324        -6.44644
   S        9.22878         0.82058        -7.61544
   C       10.60035         0.52370        -5.25814
   C       11.49948         0.02685        -4.32114
   C       11.81781         0.93849        -3.32763
   C       11.16055         2.15553        -3.45080
   S       10.11396         2.14289        -4.84573
   C       11.33059         3.31289        -2.66148
   C       10.57084         4.43343        -2.78280
   C       10.82682         5.66778        -2.14959
   C       10.04354         6.81036        -2.21047
   C       10.62062         7.91897        -1.60888
   C       11.87510         7.66621        -1.07520
   S       12.30608         5.99156        -1.28413
   C       12.79420         8.60524        -0.55300
   C       12.64626         9.98245        -0.48571
   C       13.80199        10.64261        -0.09522
   C       14.86947         9.79786         0.16683
   S       14.39430         8.13337        -0.05571
   C       16.19695        10.17658         0.45737
   C       17.20395         9.33131         0.80121
   C       18.55596         9.72232         0.91329
   C       19.62159         8.98197         1.40470
   C       20.84519         9.62785         1.31394
   C       20.76505        10.88071         0.72024
   S       19.11252        11.26483         0.31988
   C       21.81048        11.76027         0.37981
   C       23.16205        11.67340         0.70400
   C       23.92503        12.68084         0.15277
   C       23.20796        13.57278        -0.65533
   S       21.51222        13.13870        -0.64210
   C       23.75763        14.69406        -1.27697
   C       23.23254        15.56972        -2.21488
   S       24.01154        17.13639        -2.34554
   C       22.85658        17.73303        -3.48764
   C       21.96022        16.71698        -3.85738
   C       22.17276        15.49411        -3.15578
   C       21.44124        14.36158        -3.53782
   C       20.48610        14.42890        -4.51771
   C       19.69548        13.23038        -4.92813
   C       20.25502        15.66167        -5.19140
   O       19.29948        15.61096        -6.15598
   C       19.01164        16.77761        -6.88629
   C       20.99353        16.77740        -4.87972
   C       22.95358        19.10300        -3.88715
   C       21.96112        19.87724        -4.33560
   H        5.73466         3.40397       -14.85399
   H        6.71311        -0.95013       -15.73165
   H        8.05660         1.56006        -9.85381
   H        8.67888        -1.34807       -10.60779
   H        9.96439        -2.56606        -8.67118
   H       10.94397        -2.09947        -6.32286
   H       11.92152        -0.95949        -4.38796
   H       12.51212         0.73932        -2.53031
   H       12.14218         3.29432        -1.94456
   H        9.71693         4.41679        -3.44887
   H        9.08562         6.82295        -2.69911
   H       10.15906         8.88907        -1.57687
   H       11.72994        10.48229        -0.74145
   H       13.88268        11.71197        -0.01134
   H       16.41450        11.23344         0.35828
   H       16.98514         8.28709         0.98488
   H       19.49287         7.99641         1.81581
   H       21.77559         9.19885         1.63942
   H       23.55647        10.89571         1.33261
   H       24.98686        12.77683         0.29614
   H       24.74795        14.95188        -0.91654
   H       21.65007        13.40983        -3.08040
   H       19.85905        13.01624        -5.98330
   H       18.63210        13.42633        -4.80109
   H       19.97224        12.36244        -4.33664
   H       18.67090        17.58683        -6.23243
   H       18.20937        16.50605        -7.57057
   H       19.87871        17.11628        -7.46262
   H       20.88697        17.69024        -5.43895
   H       23.93574        19.54047        -3.75072
   H       20.94522        19.53309        -4.41110
   H       22.14165        20.90283        -4.60515
*
