# ORCA input file
# SCF done       -179.609272569325          0.000487241022
! CAM-B3LYP def2-SVP def2/J RIJCOSX Grid4 TightSCF
%maxcore 5000
%tddft
    Mode sTDDFT
    Ethresh 5.0
    maxcore 5000
end

%pal
  nprocs 6
  end
* xyz 0 1
   C        1.36293         0.72356         1.33412
   C        0.13105         0.92450         1.86621
   C       -0.65572        -0.25138         1.89957
   C       -1.98744        -0.25532         2.51603
   C       -2.92044         0.69537         2.14319
   C       -4.18324         0.71349         2.73925
   C       -4.49487        -0.22171         3.71143
   C       -3.54640        -1.17227         4.09845
   C       -2.29360        -1.18705         3.51046
   O       -3.96409        -2.04178         5.06266
   C       -3.07256        -3.04102         5.49167
   O       -5.03092         1.68019         2.29336
   C       -6.31965         1.75306         2.85267
   C        0.00740        -1.34219         1.36773
   S        1.61879        -0.91068         0.87316
   C       -0.48019        -2.67437         1.12180
   C       -1.82862        -2.99038         1.05002
   C       -2.27627        -4.28749         0.82851
   C       -1.40982        -5.35306         0.63601
   C       -0.01971        -5.04737         0.61296
   C        0.43819        -3.73012         0.86385
   N        1.75453        -3.46713         0.82961
   C        2.60385        -4.41831         0.54463
   C        2.14287        -5.74187         0.28835
   N        0.86651        -6.01812         0.33825
   C        3.07946        -6.85642        -0.03401
   C        4.05197        -4.06531         0.50799
   C       -1.84418        -6.70507         0.38953
   C       -2.99973        -7.36663         0.77984
   C       -4.04616        -6.86232         1.73091
   C       -3.45682        -6.50532         3.09512
   C       -3.06912        -8.66133         0.25125
   C       -2.00016        -9.01129        -0.54717
   S       -0.82929        -7.72567        -0.58373
   C       -1.84116       -10.22473        -1.26394
   C       -0.78550       -10.50943        -2.06297
   C       -0.64943       -11.67950        -2.85449
   C       -1.51428       -12.75063        -2.99177
   C       -1.04528       -13.67687        -3.92101
   C        0.19318       -13.32520        -4.50525
   S        0.77509       -11.82914        -3.87786
   C        0.50797       -14.32369        -5.42483
   C       -0.55159       -15.26702        -5.38166
   N       -1.47909       -14.86008        -4.45677
   C       -0.40090       -16.32132        -6.26907
   C        0.77210       -16.21198        -7.00862
   S        1.70053       -14.77269        -6.57656
   C        1.27678       -17.04833        -8.02251
   C        0.63351       -18.15838        -8.49634
   C        1.02838       -19.01687        -9.53953
   C        2.18098       -19.13320       -10.28286
   C        2.31210       -20.08382       -11.37336
   C        1.29945       -20.75397       -12.01582
   C        1.50072       -21.65388       -13.08220
   N        1.58946       -22.40438       -13.94729
   C       -0.08151       -20.62618       -11.76066
   N       -1.22481       -20.57511       -11.65184
   C        3.71960       -20.15345       -11.74773
   C        4.43029       -19.19727       -10.98450
   C        3.49943       -18.49610       -10.07855
   O        3.81071       -17.59513        -9.32343
   C        5.78432       -19.00507       -11.11107
   C        6.47303       -19.80135       -12.03150
   C        5.75586       -20.76031       -12.78411
   C        4.38445       -20.95053       -12.65974
   S        6.80851       -21.63669       -13.85149
   C        8.17078       -20.72797       -13.29318
   C        7.86026       -19.81038       -12.35207
   H        2.15026         1.44049         1.20882
   H       -0.21947         1.86795         2.24535
   H       -2.69869         1.42056         1.37707
   H       -5.45489        -0.25330         4.19862
   H       -1.54250        -1.90584         3.79498
   H       -3.61605        -3.62216         6.23513
   H       -2.17785        -2.61086         5.95302
   H       -2.77516        -3.69624         4.66636
   H       -6.80954         2.58915         2.35599
   H       -6.28001         1.94406         3.92974
   H       -6.89009         0.83722         2.66741
   H       -2.56135        -2.20604         1.15154
   H       -3.33975        -4.44852         0.76735
   H        3.64691        -6.62575        -0.93427
   H        2.50960        -7.76773        -0.19047
   H        3.78700        -7.00619         0.78023
   H        4.60307        -4.64381         1.24814
   H        4.16548        -3.00591         0.71851
   H        4.47102        -4.28731        -0.47216
   H       -4.79128        -7.65000         1.86156
   H       -4.56540        -5.99642         1.31527
   H       -2.96988        -7.37416         3.53239
   H       -4.24292        -6.17210         3.76893
   H       -2.71960        -5.71186         3.00024
   H       -3.89328        -9.32778         0.44109
   H       -2.65330       -10.93269        -1.16613
   H        0.01564        -9.78616        -2.13923
   H       -2.43682       -12.84090        -2.44969
   H       -2.33708       -15.33262        -4.23254
   H       -1.09886       -17.12954        -6.38446
   H        2.23179       -16.76952        -8.44325
   H       -0.32786       -18.40607        -8.06426
   H        0.26275       -19.74127        -9.79339
   H        6.29546       -18.26355       -10.51670
   H        3.88615       -21.69751       -13.25439
   H        9.13491       -20.94190       -13.71200
   H        8.57676       -19.15530       -11.89019
*
