# ORCA input file
# SCF done       -251.263224332659          0.000567830368
! CAM-B3LYP def2-SVP def2/J RIJCOSX Grid4 TightSCF
%maxcore 5000
%tddft
    Mode sTDDFT
    Ethresh 5.0
    maxcore 5000
end

%pal
  nprocs 6
  end
* xyz 0 1
   C       -0.00437         1.57724        -2.53710
   C        0.33211         0.84057        -1.42864
   C       -0.19600        -0.43292        -1.13208
   N       -0.55070        -1.48665        -0.84599
   C        1.20430         1.27570        -0.41202
   N        1.89051         1.57647         0.45846
   C       -1.11045         1.24848        -3.44185
   C       -1.47190         2.40663        -4.15458
   C       -2.51321         2.40823        -5.05763
   C       -3.20477         1.21588        -5.26515
   C       -2.84329         0.05841        -4.56872
   C       -1.79928         0.06463        -3.65006
   C       -3.65170        -1.19587        -4.76371
   O       -4.71336        -1.38597        -4.23597
   O       -3.00098        -2.06936        -5.52486
   C       -3.70424        -3.26891        -5.82723
   C       -4.30563         1.11315        -6.25988
   O       -4.66176         0.07207        -6.75504
   O       -4.84149         2.29826        -6.54915
   C       -5.90932         2.28607        -7.48714
   C       -0.55850         3.51193        -3.78670
   O       -0.59120         4.65908        -4.16786
   C        0.45059         2.90100        -2.88304
   C        1.58640         3.61532        -2.61158
   C        2.82709         3.18983        -2.11217
   C        3.37680         1.91356        -2.01388
   C        4.63658         1.89242        -1.44794
   C        5.07881         3.17240        -1.10423
   S        3.95602         4.39628        -1.52675
   C        6.32956         3.27577        -0.45389
   C        7.00001         2.09468        -0.14351
  Ge        5.92497         0.56213        -0.77687
   C        5.13651        -0.52247         0.67830
   C        6.83814        -0.47629        -2.20049
   C        8.21060         2.33494         0.49621
   C        8.47691         3.68308         0.66591
   S        7.19236         4.68552         0.03366
   C        9.60282         4.26605         1.21629
   C       10.59467         4.79816         1.67596
   C       11.73070         5.43296         2.14358
   S       12.02741         7.09953         1.74115
   C       13.54096         7.05927         2.61368
   C       13.76369         5.81642         3.18166
   C       12.75020         4.90338         2.91585
   C       14.35492         8.17108         2.63763
   C       15.04525         9.17383         2.59046
   C       15.84749        10.29371         2.50851
   C       15.49545        11.38487         1.77556
   C       16.30569        12.52962         1.63070
   C       16.04203        13.66914         0.86513
   C       14.82887        13.83521         0.07704
   O       13.93961        13.01247        -0.02482
   C       14.76092        15.13906        -0.62565
   C       15.82960        16.07162        -0.62081
   C       15.53662        17.19215        -1.36535
   S       13.97151        17.13487        -2.06836
   C       13.69784        15.58770        -1.37146
   C       12.39141        14.89682        -1.62193
   F       12.53237        13.76242        -2.31171
   F       11.73019        14.61596        -0.49837
   F       11.57967        15.68327        -2.35340
   C       16.40847        18.37701        -1.62690
   F       17.53593        18.06739        -2.27136
   F       15.77389        19.28280        -2.38584
   F       16.77082        19.03267        -0.50833
   C       17.08302        15.85538         0.12542
   O       18.00753        16.64726         0.04940
   C       17.07906        14.64495         0.94153
   C       18.12401        14.25121         1.77373
   S       17.84989        12.66837         2.42208
   C       19.34704        14.89793         2.12800
   C       19.58231        16.21507         2.31689
   C       20.97883        16.74174         2.24232
   O       21.99914        16.12075         2.39263
   C       20.80905        18.16387         1.86329
   C       19.44335        18.50561         1.90794
   C       19.02654        19.76950         1.52562
   C       19.97831        20.68711         1.09194
   C       21.34307        20.35155         1.08243
   C       21.76505        19.07455         1.46591
   C       22.32846        21.27374         0.64487
   N       23.19087        21.93474         0.28403
   C       19.57422        22.07070         0.66145
   O       20.26308        23.02861         0.86267
   O       18.39605        22.16549         0.03862
   C       18.67627        17.35025         2.35295
   C       17.41334        17.36265         2.87192
   C       16.58183        18.50232         2.89235
   N       15.85674        19.39091         2.89515
   C       16.80294        16.22589         3.44290
   N       16.28083        15.33217         3.93809
   H       -2.78035         3.30524        -5.59348
   H       -1.54277        -0.84365        -3.12880
   H       -4.58120        -3.03420        -6.43279
   H       -4.02561        -3.76197        -4.90769
   H       -3.01080        -3.89604        -6.38121
   H       -6.28328         3.30542        -7.53393
   H       -6.69316         1.60143        -7.15734
   H       -5.54902         1.96309        -8.46610
   H        1.52179         4.66512        -2.88441
   H        2.87957         1.03619        -2.38918
   H        4.52029         0.10798         1.31202
   H        5.91339        -0.98264         1.28105
   H        4.51179        -1.30535         0.25921
   H        7.23236         0.18882        -2.96264
   H        6.13950        -1.16562        -2.66457
   H        7.65840        -1.04902        -1.77886
   H        8.89062         1.56847         0.82494
   H       14.64209         5.59715         3.76203
   H       12.74057         3.88632         3.26468
   H       16.79075        10.26990         3.04344
   H       14.55031        11.39847         1.25138
   H       20.20922        14.24583         2.23306
   H       17.98127        20.03558         1.56494
   H       22.81061        18.80713         1.44146
   H       17.94671        21.31749        -0.08783
*
