# ORCA input file
# SCF done       -207.446014078746          0.000442730716
! CAM-B3LYP def2-SVP def2/J RIJCOSX Grid4 TightSCF
%maxcore 5000
%tddft
    Mode sTDDFT
    Ethresh 5.0
    maxcore 5000
end

%pal
  nprocs 6
  end
* xyz 0 1
   C       -1.11587         4.70762        -2.32661
   C       -0.71520         3.49308        -1.83716
   C       -1.07424         2.25370        -2.40608
   N       -1.30410         1.21840        -2.84480
   C        0.02861         3.33491        -0.64769
   N        0.57413         3.14986         0.34500
   C       -2.16876         4.90464        -3.32203
   C       -2.66183         6.21806        -3.20291
   C       -3.72486         6.66311        -3.96012
   C       -4.30075         5.77882        -4.86993
   C       -3.79610         4.48204        -5.01360
   C       -2.73164         4.03270        -4.24094
   C       -4.47748         3.53280        -5.96188
   O       -5.50381         2.96458        -5.70499
   O       -3.75846         3.36544        -7.06603
   C       -4.33491         2.52765        -8.06111
   C       -5.43711         6.18457        -5.74007
   O       -5.69050         5.66219        -6.79738
   O       -6.13755         7.18956        -5.21503
   C       -7.26324         7.62655        -5.96436
   C       -1.86919         6.95741        -2.19251
   O       -2.01729         8.09855        -1.82883
   C       -0.80447         6.00766        -1.76698
   C        0.25839         6.45226        -1.04633
   C        1.50494         5.80672        -0.83345
   S        2.24800         4.80630        -2.04606
   C        2.30833         5.88589         0.29422
   C        1.88413         6.64989         1.48960
   O        0.85726         7.30376         1.53641
   C        2.82200         6.52257         2.58597
   C        2.78785         7.06835         3.85201
   N        3.84979         6.60372         4.54957
   C        4.20076         6.99170         5.89245
   C        5.16511         8.17601         5.88743
   C        4.57760         5.77155         3.76655
   C        3.97363         5.68896         2.53136
   C        4.38057         4.90785         1.37346
   O        5.32359         4.13885         1.40560
   C        3.50547         5.12491         0.19870
   C        3.63938         4.49967        -1.04061
   C        4.62711         3.64232        -1.60012
   C        5.93001         3.56559        -1.23886
   C        6.84888         2.56269        -1.67546
   C        6.57541         1.51602        -2.55083
   C        7.42964         0.43254        -2.74568
   C        8.63438         0.28681        -2.06547
   C        9.01349         1.38541        -1.24980
   C        8.13770         2.51583        -1.07187
   N        8.75734         3.36151        -0.27478
   O        9.92942         2.80746         0.02412
   N       10.10300         1.61469        -0.54798
   C        9.38365        -0.91643        -2.08853
   S       10.73942        -1.15577        -0.95756
   C       10.80915        -2.77586        -1.50557
   C        9.84713        -3.00000        -2.50762
   N        9.07627        -1.96859        -2.80599
   C        9.87517        -4.42414        -2.96548
   C       10.91922        -4.99696        -2.05213
   C       11.45247        -3.99825        -1.23022
   S       12.60475        -4.61115        -0.11444
   C       12.35445        -6.23500        -0.73208
   C       11.43562        -6.25398        -1.77335
   C       12.97786        -7.35969        -0.13941
   C       13.79836        -7.29875         0.93851
   C       14.34260        -8.41495         1.62061
   C       14.16058        -9.77012         1.40031
   C       14.80779       -10.57803         2.32930
   C       15.50277        -9.83557         3.27727
   S       15.35961        -8.14242         3.01858
   C       16.19144       -10.54652         4.29645
   C       16.11793       -11.92864         4.28646
  Ge       15.01185       -12.49094         2.75860
   C       13.30406       -13.35517         3.28523
   C       16.00138       -13.52302         1.38192
   C       16.83400       -12.49619         5.35320
   C       17.43037       -11.56090         6.14326
   S       17.13704        -9.94968         5.61078
   H       -4.09996         7.66825        -3.84955
   H       -2.36437         3.02696        -4.36813
   H       -3.57205         2.39134        -8.82284
   H       -5.21678         3.01404        -8.48105
   H       -4.62727         1.56974        -7.62686
   H       -7.79892         8.32523        -5.32698
   H       -7.89645         6.77592        -6.22395
   H       -6.93792         8.11790        -6.88364
   H        0.15033         7.43573        -0.59754
   H        2.07229         7.74141         4.28097
   H        4.66286         6.13628         6.39210
   H        3.28518         7.25616         6.42700
   H        6.07971         7.91726         5.35955
   H        5.41718         8.45364         6.90686
   H        4.71125         9.03203         5.39399
   H        5.46605         5.28649         4.11904
   H        4.25848         3.01349        -2.40130
   H        6.32906         4.24519        -0.50274
   H        5.63411         1.50795        -3.07835
   H        7.12944        -0.36844        -3.40307
   H       10.15712        -4.50372        -4.01728
   H        8.90508        -4.90858        -2.84357
   H       11.15339        -7.16150        -2.27624
   H       12.72659        -8.31591        -0.57686
   H       14.04414        -6.32628         1.34649
   H       13.56498       -10.15518         0.59145
   H       12.79680       -12.75982         4.03763
   H       13.49215       -14.34380         3.69199
   H       12.65233       -13.45516         2.42281
   H       16.92419       -13.01589         1.11915
   H       15.39592       -13.63162         0.48742
   H       16.24223       -14.51248         1.75776
   H       16.90583       -13.55508         5.53152
   H       18.03218       -11.71508         7.01762
*
