# ORCA input file
# SCF done       -266.668160724795          0.000491749615
! CAM-B3LYP def2-SVP def2/J RIJCOSX Grid4 TightSCF
%maxcore 5000
%tddft
    Mode sTDDFT
    Ethresh 5.0
    maxcore 5000
end

%pal
  nprocs 6
  end
* xyz 0 1
   C        2.79164        -0.54071         2.31134
   C        1.45453        -1.11413         2.45604
   C        1.28237        -2.49743         2.51097
   C        0.01713        -3.04904         2.56728
   C       -1.10442        -2.22404         2.57129
   C       -0.93315        -0.84042         2.58742
   C        0.33086        -0.29013         2.53645
   C       -2.49977        -2.76138         2.60465
   O       -3.41187        -2.14851         3.08739
   O       -2.69108        -3.96800         2.05372
   C        3.66501        -0.88678         1.34786
   C        5.03379        -0.34858         1.32163
   C        5.77414        -0.24011         2.49888
   C        7.07505         0.21579         2.46473
   C        7.65886         0.60185         1.25948
   C        6.91743         0.50981         0.08392
   C        5.62281         0.03113         0.11638
   C        9.07852         1.06680         1.29579
   O        9.84173         0.73409         2.15874
   O        9.46559         1.89298         0.31018
   C        3.28193        -1.79111         0.24942
   C        1.92865        -1.57510        -0.30388
   C        0.98507        -2.59602        -0.41998
   C       -0.31744        -2.34692        -0.82969
   C       -0.70472        -1.05483        -1.17438
   C        0.22459        -0.02274        -1.09787
   C        1.51571        -0.29063        -0.65871
   F        2.38850         0.72112        -0.59262
   F       -0.12445         1.21928        -1.43035
   F       -1.95108        -0.81095        -1.56723
   F       -1.20999        -3.33643        -0.86191
   F        1.31891        -3.84841        -0.08941
   C        4.11180        -2.73648        -0.24765
   C        5.42891        -3.02656         0.34950
   C        5.59928        -3.33741         1.69581
   C        6.84937        -3.63152         2.22528
   C        7.97251        -3.61637         1.40352
   C        7.82753        -3.30919         0.05328
   C        6.56658        -3.02826        -0.45619
   F        6.44832        -2.70985        -1.74989
   F        8.89471        -3.27950        -0.74388
   F        9.17156        -3.89703         1.90257
   F        6.97289        -3.92370         3.51990
   F        4.53885        -3.37393         2.50658
   C        3.73863        -3.59012        -1.37681
   C        3.14605        -3.12845        -2.52853
   C        2.66447        -3.99915        -3.51571
   C        2.70296        -5.36812        -3.37343
   C        3.36548        -5.88703        -2.23098
   C        3.92028        -4.99156        -1.24931
   N        4.53678        -5.59677        -0.24076
  Se        4.47146        -7.32579        -0.48285
   N        3.56394        -7.17199        -1.96295
   C        2.10799        -6.24958        -4.38364
   C        2.44718        -5.92306        -5.77665
   C        1.49407        -5.90306        -6.79439
   C        1.83688        -5.66022        -8.11856
   C        3.16263        -5.40974        -8.45448
   C        4.12885        -5.38614        -7.45185
   C        3.76744        -5.63220        -6.13402
   F        4.71903        -5.61250        -5.20136
   F        5.39867        -5.12610        -7.76285
   F        3.50258        -5.18296        -9.72260
   F        0.89421        -5.66488        -9.06480
   F        0.19841        -6.09492        -6.50225
   C        1.31473        -7.30383        -4.07100
   C        0.91948        -7.56378        -2.67546
   C        0.37122        -6.57376        -1.85684
   C        0.03706        -6.81965        -0.53118
   C        0.25303        -8.08101         0.01476
   C        0.77628        -9.09229        -0.78474
   C        1.09048        -8.83084        -2.11333
   F        1.58830        -9.82512        -2.84851
   F        0.97747       -10.30748        -0.27396
   F       -0.04522        -8.31484         1.29211
   F       -0.49492        -5.86097         0.23394
   F        0.12976        -5.35805        -2.36187
   C        0.91495        -8.32105        -5.05201
   C       -0.36776        -8.77123        -5.13250
   O       -0.75479        -9.75563        -5.94753
   C        0.15672       -10.38733        -6.72863
   C       -0.28956       -11.44040        -7.52655
   C        0.60517       -12.09646        -8.34337
   C        1.94476       -11.71483        -8.37902
   C        2.38521       -10.67353        -7.59561
   C        1.49667        -9.99503        -6.75594
   C        1.95813        -8.87650        -5.92844
   O        3.09679        -8.44174        -5.97968
   C       -1.52069        -8.19383        -4.37464
   H        3.07283         0.21862         3.02804
   H        2.14790        -3.14010         2.51616
   H       -0.08292        -4.12404         2.62436
   H       -1.81107        -0.21448         2.63580
   H        0.45623         0.78254         2.53236
   H       -1.90414        -4.33177         1.62372
   H        5.33329        -0.54521         3.43585
   H        7.66603         0.28171         3.36536
   H        7.34940         0.77101        -0.87307
   H        5.05794        -0.03778        -0.80067
   H        8.74629         2.12216        -0.29302
   H        3.04634        -2.06518        -2.68519
   H        2.19776        -3.57492        -4.39237
   H       -1.33025       -11.71993        -7.48703
   H        0.26306       -12.91276        -8.96073
   H        2.63434       -12.23792        -9.02297
   H        3.41571       -10.35298        -7.60002
   H       -1.62695        -8.67975        -3.40513
   H       -2.43248        -8.37049        -4.94013
   H       -1.39082        -7.12643        -4.22583
*
