# ORCA input file
# SCF done       -171.572322716050          0.000540375318
! CAM-B3LYP def2-SVP def2/J RIJCOSX Grid4 TightSCF
%maxcore 5000
%tddft
    Mode sTDDFT
    Ethresh 5.0
    maxcore 5000
end

%pal
  nprocs 6
  end
* xyz 0 1
   C        1.86041        -4.59380         2.54978
   O        1.32663        -5.67871         2.52632
   C        3.05112        -4.21898         3.34221
   C        3.50622        -2.94855         2.94777
   C        4.63139        -2.40671         3.55569
   C        5.27734        -3.13789         4.53992
   C        4.81129        -4.39329         4.91084
   C        3.69191        -4.95790         4.31517
  Br        5.73042        -5.35773         6.26304
   C        2.62745        -2.43148         1.90321
   C        2.76621        -1.22477         1.27282
   C        3.81413        -0.31297         1.52700
   N        4.64217         0.46603         1.68221
   C        1.90293        -0.71629         0.27818
   N        1.25311        -0.23318        -0.53552
   C        1.57343        -3.41203         1.69084
   C        0.56788        -3.34552         0.78077
   C       -0.54311        -4.24821         0.71127
   C       -1.11950        -4.60646        -0.49480
   C       -2.12820        -5.57157        -0.60161
   C       -2.66011        -6.23256         0.49013
   C       -2.22709        -5.76104         1.76049
   C       -1.16879        -4.78878         1.86767
   N       -1.04890        -4.47919         3.14136
   O       -1.96108        -5.19884         3.78613
   N       -2.68388        -5.97187         2.97779
   C       -3.58817        -7.31936         0.34558
   S       -4.74637        -7.32237        -0.93700
   C       -5.33859        -8.89888        -0.48040
   C       -4.65985        -9.37085         0.63854
   C       -3.65834        -8.48823         1.08163
   C       -2.64947        -8.82501         2.14706
   N       -1.33990        -8.37315         1.70012
   C       -2.72325       -10.32438         2.46894
   C       -4.17398       -10.73010         2.67661
   C       -4.95584       -10.66326         1.35338
   N       -6.39366       -10.80450         1.53485
   C       -6.30566        -9.46428        -1.35488
   C       -6.72601       -10.75053        -1.38782
   C       -7.59964       -11.29622        -2.37674
   C       -8.34885       -10.59359        -3.31084
   C       -9.11954       -11.21565        -4.29444
   C       -9.17207       -12.59118        -4.48028
   C       -8.47265       -13.35650        -3.50793
   C       -7.72065       -12.71311        -2.46118
   N       -7.21890       -13.66305        -1.70065
   O       -7.62799       -14.81514        -2.21836
   N       -8.38347       -14.65710        -3.30945
   C       -9.92253       -13.17250        -5.54716
   C       -9.76648       -14.38311        -6.14089
   C      -10.88425       -14.95036        -6.94756
   O      -11.86318       -14.36587        -7.34530
   C      -10.55221       -16.38428        -7.10234
   C       -9.27600       -16.63162        -6.56290
   C       -8.70734       -15.37055        -6.09748
   C       -7.37465       -15.12891        -5.90506
   C       -6.37615       -16.12321        -5.97030
   N       -5.52678       -16.89384        -6.00508
   C       -6.83052       -13.84423        -5.70407
   N       -6.33537       -12.81782        -5.56526
   C       -8.76518       -17.92109        -6.56427
   C       -9.52954       -18.93947        -7.11237
   C      -10.77996       -18.67138        -7.65545
   C      -11.31583       -17.39038        -7.65799
  Br      -11.78299       -20.09723        -8.40865
   H        5.01335        -1.43732         3.28138
   H        6.15227        -2.73048         5.02281
   H        3.32610        -5.93280         4.59754
   H        0.58832        -2.57375         0.02189
   H       -0.72370        -4.17797        -1.40423
   H       -2.46822        -5.85067        -1.58840
   H       -2.89394        -8.24915         3.04870
   H       -1.01131        -8.93652         0.92327
   H       -0.65682        -8.43060         2.44573
   H       -2.13411       -10.53452         3.36372
   H       -2.29804       -10.89686         1.63914
   H       -4.63615       -10.05362         3.40150
   H       -4.23495       -11.74567         3.07398
   H       -4.62854       -11.49621         0.71361
   H       -6.74971       -10.05311         2.11560
   H       -6.60379       -11.68320         1.99464
   H       -6.65465        -8.77849        -2.11708
   H       -6.36502       -11.45964        -0.66362
   H       -8.34176        -9.51517        -3.28574
   H       -9.66382       -10.59037        -4.98752
   H      -10.76876       -12.59182        -5.90227
   H       -7.80069       -18.14577        -6.13892
   H       -9.15192       -19.95049        -7.11890
   H      -12.28861       -17.18106        -8.07524
*
