# ORCA input file
# SCF done       -150.804469667873          0.000745625570
! CAM-B3LYP def2-SVP def2/J RIJCOSX Grid4 TightSCF
%maxcore 5000
%tddft
    Mode sTDDFT
    Ethresh 5.0
    maxcore 5000
end

%pal
  nprocs 6
  end
* xyz 0 1
   C       -1.06388         9.59866         0.51796
   N        0.11551         9.05857         0.13421
   C        0.50125         8.11226         1.04554
   C       -0.47160         8.06058         2.03080
   C       -1.45415         8.99968         1.69129
   C        1.68116         7.38717         0.90377
   C        2.71221         6.76823         0.75657
   C        3.89398         6.03576         0.59993
   C        4.29338         5.09427         1.53464
   C        5.47888         4.38888         1.37532
   C        6.31451         4.58210         0.28670
   C        5.90656         5.50367        -0.71664
   C        4.71306         6.24931        -0.54390
   N        4.34419         7.16524        -1.45883
   C        5.08491         7.33070        -2.52135
   C        6.22908         6.50894        -2.74730
   N        6.61563         5.63681        -1.85527
   C        7.01406         6.60322        -4.01267
   C        4.68026         8.39257        -3.48602
   C        7.54671         3.82878         0.18777
   C        8.77063         4.18950        -0.31342
   C        9.74102         3.13635        -0.20100
   C       11.09979         3.15364        -0.50637
   C       11.85143         2.00067        -0.32965
   C       11.27802         0.82703         0.18861
   C        9.95167         0.81374         0.55251
   C        9.19668         1.96381         0.36017
   S        7.52847         2.17639         0.77527
   C       13.21784         2.00752        -0.68931
   N       14.32207         2.01166        -0.99917
   C        9.08155         5.49622        -0.87847
   C        8.75085         6.67610        -0.23615
   C        9.04584         7.91752        -0.78646
   C        9.73479         8.03484        -1.98482
   C       10.14908         6.83835        -2.63754
   C        9.78863         5.57598        -2.10904
   N       10.09199         4.45263        -2.78984
   C       10.77092         4.54516        -3.90232
   C       11.19304         5.81441        -4.39783
   N       10.85674         6.91855        -3.78162
   C       12.02149         5.93735        -5.63099
   C       11.09687         3.27526        -4.61353
   C       10.12230         9.28362        -2.57212
   C        9.41141        10.44204        -2.58352
   C        9.87340        11.71429        -3.11270
   C       11.17277        12.06258        -3.36321
   C       11.57158        13.32253        -3.85665
   N       11.95474        14.32575        -4.26292
   C       12.29257        11.23289        -3.13559
   N       13.25804        10.63688        -2.95973
   C        8.71098        12.58649        -3.24924
   C        7.57775        11.90736        -2.76672
   C        7.95559        10.55931        -2.30758
   O        7.20062         9.70644        -1.88677
   C        6.33052        12.50167        -2.77371
   C        6.21858        13.79331        -3.26423
   C        7.32806        14.48183        -3.74883
   C        8.58332        13.87271        -3.74239
   C        7.19067        15.86656        -4.29636
   H       -1.54555        10.36439        -0.05859
   H        0.64463         9.29955        -0.68751
   H       -0.46218         7.41640         2.88755
   H       -2.34738         9.21323         2.24412
   H        3.67614         4.91701         2.40267
   H        5.76903         3.67666         2.13503
   H        7.49971         7.57654        -4.07336
   H        6.36209         6.49374        -4.87797
   H        7.76898         5.82256        -4.03063
   H        3.74996         8.84319        -3.15260
   H        4.55183         7.98590        -4.48753
   H        5.45730         9.15414        -3.52026
   H       11.57323         4.04956        -0.87434
   H       11.89099        -0.05302         0.31072
   H        9.49957        -0.06828         0.97841
   H        8.24321         6.63131         0.71651
   H        8.77169         8.80795        -0.24340
   H       12.95184         5.38358        -5.51510
   H       12.24619         6.98449        -5.81232
   H       11.49117         5.52700        -6.48936
   H       10.63143         2.44344        -4.09220
   H       12.17560         3.12407        -4.63365
   H       10.74100         3.30628        -5.64199
   H       11.06089         9.24315        -3.11161
   H        5.47314        11.96538        -2.39590
   H        5.25348        14.27859        -3.27158
   H        9.43325        14.41388        -4.12633
   H        6.24009        16.31019        -4.01231
   H        7.24624        15.84064        -5.38492
   H        8.00054        16.50031        -3.94117
*
