# ORCA input file
# SCF done       -179.088222893095          0.000930488345
! CAM-B3LYP def2-SVP def2/J RIJCOSX Grid4 TightSCF
%maxcore 5000
%tddft
    Mode sTDDFT
    Ethresh 5.0
    maxcore 5000
end

%pal
  nprocs 6
  end
* xyz 0 1
   C        8.18856        -7.84613        -4.24393
   C        7.80525        -9.15711        -4.27360
   F        8.58884       -10.06228        -4.90128
   C        6.62442        -9.61244        -3.67533
   C        5.82247        -8.71097        -3.03134
   C        6.16860        -7.34627        -2.96564
   C        7.37178        -6.90399        -3.58815
   C        7.73037        -5.53602        -3.54991
   C        6.91451        -4.65004        -2.90263
   C        5.72775        -5.09982        -2.25611
   C        5.35116        -6.41028        -2.28965
   C        5.07539        -3.95280        -1.58153
   O        4.03133        -3.95623        -0.96652
   C        6.01022        -2.81933        -1.76028
   C        7.00151        -3.20223        -2.73638
   C        7.69737        -2.36138        -3.57253
   C        7.50475        -0.96562        -3.59365
   N        7.33830         0.16850        -3.67094
   C        8.62874        -2.79736        -4.53153
   N        9.42470        -3.09473        -5.30492
   C        5.91802        -1.69728        -0.97202
   C        6.95655        -0.80759        -0.67629
   C        6.85830         0.48763        -0.12363
   O        5.64320         0.96691         0.18474
   C        5.55969         2.30513         0.62377
   C        8.08592         1.13223        -0.01791
   C        9.16389         0.36376        -0.46392
   S        8.62634        -1.21850        -0.93874
   C       10.48714         0.77511        -0.64140
   C       11.46981         0.06080        -1.29810
   C       12.75145         0.53188        -1.66942
   C       13.47004        -0.33843        -2.43982
   C       12.80401        -1.55357        -2.68742
   S       11.24275        -1.56251        -1.90259
   C       13.19914        -2.64734        -3.44504
   C       14.36258        -2.80833        -4.22384
   C       14.42370        -4.00142        -4.88658
   C       13.31674        -4.84563        -4.65112
   S       12.19279        -4.06365        -3.55848
   C       13.01847        -6.10630        -5.12644
   C       13.72563        -6.89179        -6.03069
   C       13.30634        -8.18128        -6.44312
   O       12.17147        -8.68279        -5.92796
   C       11.75395        -9.95370        -6.38549
   C       14.17038        -8.77418        -7.35233
   C       15.24376        -7.96644        -7.71530
   S       15.20376        -6.46005        -6.83571
   C       16.28575        -8.32450        -8.58759
   C       17.20816        -7.51987        -9.20012
   C       18.50306        -8.08688        -9.65299
   O       18.79141        -9.25983        -9.74560
   C       19.36962        -6.91655        -9.90238
   C       20.69199        -6.88010       -10.23678
   C       21.32690        -5.62822       -10.40493
   C       20.57498        -4.43248       -10.21548
   C       21.21610        -3.18922       -10.37726
   C       22.54001        -3.15563       -10.71659
   C       23.29564        -4.31927       -10.91107
   C       22.68917        -5.53492       -10.75502
   F       23.15403        -1.96744       -10.87220
   C       19.20238        -4.50031        -9.87861
   C       18.60881        -5.72349        -9.73184
   C       17.22682        -6.09938        -9.44612
   C       16.12792        -5.30479        -9.66747
   C       14.81615        -5.81730        -9.71422
   N       13.75000        -6.23172        -9.81809
   C       16.20142        -3.93210        -9.96650
   N       16.21483        -2.80401       -10.18240
   H        9.10286        -7.53158        -4.72299
   H        6.37329       -10.65956        -3.73474
   H        4.90694        -9.03703        -2.56112
   H        8.64733        -5.22244        -4.02376
   H        4.44185        -6.73398        -1.80574
   H        4.97166        -1.52567        -0.47148
   H        6.11187         2.45207         1.55705
   H        4.50169         2.49501         0.79396
   H        5.93721         2.99355        -0.13759
   H        8.22113         2.14078         0.32773
   H       10.73707         1.77632        -0.31665
   H       13.09250         1.51089        -1.38256
   H       14.44802        -0.13011        -2.83493
   H       15.11401        -2.04228        -4.28976
   H       15.23462        -4.28604        -5.53188
   H       12.10365        -6.56060        -4.76832
   H       10.81717       -10.16161        -5.87368
   H       12.48814       -10.72395        -6.13256
   H       11.58731        -9.94615        -7.46591
   H       14.03020        -9.74544        -7.79043
   H       16.43228        -9.39029        -8.73503
   H       21.24913        -7.79477       -10.37383
   H       20.66367        -2.27274       -10.24023
   H       24.33644        -4.23116       -11.17947
   H       23.25065        -6.44566       -10.89997
   H       18.65530        -3.58139        -9.73799
*
