# ORCA input file
# SCF done       -208.481482474029          0.000692031091
! CAM-B3LYP def2-SVP def2/J RIJCOSX Grid4 TightSCF
%maxcore 5000
%tddft
    Mode sTDDFT
    Ethresh 5.0
    maxcore 5000
end

%pal
  nprocs 6
  end
* xyz 0 1
   C       -4.27033         3.92513         2.46288
   C       -3.42996         4.64616         1.62762
   C       -3.08222         4.16697         0.37251
   C       -3.57623         2.95663        -0.09016
   C       -4.42181         2.23175         0.73285
   C       -4.76445         2.70882         2.01815
   C       -5.62814         1.73225         2.66886
   C       -6.25679         1.89668         3.87432
   C       -6.16353         3.06478         4.66132
   N       -6.13563         3.98147         5.35136
   C       -7.11346         0.96063         4.49106
   N       -7.81996         0.25065         5.05291
   C       -5.67753         0.56497         1.79438
   C       -5.11026         0.96977         0.51226
   C       -5.40073         0.44173        -0.71731
   C       -6.29267        -0.62592        -0.94422
   N       -7.04166        -1.45781        -1.20019
   C       -4.91902         0.96898        -1.93478
   N       -4.56350         1.34616        -2.95832
   C       -6.10599        -0.67365         2.18814
   C       -5.83376        -1.91149         1.56975
   C       -4.79195        -2.26487         0.72042
   C       -4.86333        -3.59212         0.32674
   C       -5.97088        -4.27163         0.88311
   S       -6.88960        -3.28005         1.91373
   C       -5.98612        -5.58835         0.37234
   C       -4.89374        -5.74904        -0.50268
   C       -4.15364        -4.49771        -0.55806
   C       -3.05208        -4.21233        -1.31109
   C       -2.44598        -5.17099        -2.14919
   N       -1.95121        -5.95527        -2.82348
   C       -2.46155        -2.93134        -1.28977
   N       -1.99600        -1.88377        -1.25881
   C       -4.84840        -7.01009        -1.08907
   C       -5.90133        -7.81089        -0.67366
   S       -6.95353        -6.99298         0.47185
   C       -6.20916        -9.12494        -1.09556
   C       -7.31199        -9.88041        -0.73337
   C       -7.34086       -11.10901        -1.38397
   C       -6.24003       -11.30099        -2.24903
   S       -5.17548        -9.96165        -2.24908
   C       -6.38075       -12.54718        -2.89108
   C       -7.57870       -13.14715        -2.43974
   C       -8.20538       -12.27099        -1.46006
   C       -9.35375       -12.50507        -0.76232
   C      -10.08456       -13.70589        -0.89623
   N      -10.65599       -14.69561        -0.98444
   C       -9.85787       -11.57352         0.17033
   N      -10.25182       -10.81467         0.93390
   C       -7.85667       -14.35287        -3.05410
   C       -6.88299       -14.71143        -3.98914
   S       -5.58089       -13.51586        -4.05147
   C       -6.84658       -15.81380        -4.85232
   C       -7.90443       -16.64567        -5.15133
   C       -7.87698       -17.75967        -6.02491
   C       -9.09119       -18.35434        -6.21865
   C      -10.14204       -17.73230        -5.51487
   S       -9.53917       -16.39694        -4.57354
   C      -11.50183       -18.01051        -5.50229
   C      -12.21867       -19.03708        -6.14783
   C      -13.56656       -18.98068        -5.92776
   C      -13.97278       -17.90364        -5.10807
   S      -12.58156       -16.97353        -4.60407
   C      -15.25994       -17.55907        -4.73770
   C      -15.52478       -16.43272        -3.96340
   C      -16.77372       -16.00912        -3.56098
   C      -17.06784       -14.83033        -2.78576
   C      -16.18593       -13.84712        -2.40029
   C      -16.54891       -12.71742        -1.63990
   N      -16.77891       -11.77472        -1.02495
   C      -14.81647       -13.78659        -2.72902
   N      -13.70150       -13.63737        -2.96522
   C      -18.50337       -14.82861        -2.51081
   C      -19.08862       -15.95205        -3.14490
   C      -18.03505       -16.72708        -3.83324
   O      -18.19281       -17.74421        -4.47960
   C      -20.43383       -16.21954        -3.08474
   C      -21.24332       -15.33787        -2.35969
   C      -20.64941       -14.22275        -1.72426
   C      -19.28764       -13.95073        -1.78769
   S      -21.82820       -13.26519        -0.87958
   C      -23.08604       -14.36106        -1.38665
   C      -22.64847       -15.39134        -2.14839
  Br      -24.85870       -14.04087        -0.86316
   H       -4.52167         4.31007         3.43728
   H       -3.03711         5.59291         1.96539
   H       -2.41707         4.74121        -0.25387
   H       -3.29129         2.58758        -1.06191
   H       -6.67826        -0.73906         3.10375
   H       -4.00716        -1.58530         0.44070
   H       -4.10540        -7.34332        -1.79154
   H       -8.05452        -9.52942        -0.03926
   H       -8.70707       -14.96294        -2.81800
   H       -5.91710       -15.99839        -5.37481
   H       -6.96243       -18.08501        -6.48861
   H       -9.25512       -19.20350        -6.85733
   H      -11.73200       -19.78353        -6.74987
   H      -14.28022       -19.67453        -6.33504
   H      -16.08022       -18.17591        -5.07476
   H      -14.66787       -15.84468        -3.65647
   H      -20.85027       -17.08189        -3.58137
   H      -18.88466       -13.08762        -1.28511
   H      -23.28821       -16.15795        -2.54593
*
