# ORCA input file
# SCF done       -176.028433811678          0.000829487370
! CAM-B3LYP def2-SVP def2/J RIJCOSX Grid4 TightSCF
%maxcore 5000
%tddft
    Mode sTDDFT
    Ethresh 5.0
    maxcore 5000
end

%pal
  nprocs 6
  end
* xyz 0 1
   C      -10.82006         7.17883        -1.03644
   C      -10.15687         6.85858        -2.18180
   C       -8.83898         6.44317        -1.91038
   C       -8.54459         6.46310        -0.54163
   S       -9.86751         6.98668         0.39905
   C       -7.19975         6.03108        -0.35927
   C       -6.65286         5.74208        -1.61660
   C       -7.66676         5.99047        -2.63484
   C       -7.53326         5.82462        -3.98273
   C       -6.33279         5.37088        -4.56763
   N       -5.35881         5.00108        -5.04740
   C       -8.58631         6.09109        -4.88220
   N       -9.43825         6.30431        -5.61956
   C       -5.32910         5.30688        -1.54656
   C       -4.86811         5.25946        -0.24374
   S       -6.09580         5.76844         0.91161
   C       -3.57188         4.87029         0.21096
   C       -3.24686         4.82292         1.54368
   C       -2.00060         4.46429         2.05855
   C       -0.93314         3.99973         1.15868
   C       -1.03387         3.97350        -0.18852
   S       -2.42528         4.46864        -1.05831
   C        0.14012         3.61378         2.00659
   C       -0.22003         3.82199         3.33727
   C        0.80894         3.46084         4.23420
   C        1.90069         2.99448         3.57339
   S        1.72998         2.97828         1.84935
   C       -1.54839         4.37706         3.38775
   C       -2.16797         4.73971         4.61044
   C       -3.25013         5.53921         4.76976
   C       -3.86018         5.88158         6.01460
   C       -3.46612         5.51662         7.29914
   C       -2.38516         4.73623         7.69689
   N       -1.50081         4.09842         8.06425
   S       -4.50494         6.17419         8.53443
   C       -5.49687         6.95579         7.34718
   C       -5.02879         6.70372         6.06281
   C       -5.64318         7.14979         4.88376
   N       -6.10141         7.45126         3.87389
   C       -6.60314         7.75759         7.72813
   C       -7.14991         7.90525         8.99733
   C       -8.18596         8.85908         9.04705
   O       -8.92384         9.19080        10.12682
   C       -8.43379         8.77333        11.38832
   C       -8.11330         7.29178        11.41902
   S       -6.64362         6.96865        10.38902
   C       -8.45858         9.43504         7.80434
   S       -7.43412         8.75031         6.57245
   C       -9.41924        10.38987         7.41578
   C      -10.13392        11.30629         8.13223
   C      -11.35696        11.88556         7.50262
   O      -11.69451        11.77362         6.34672
   C      -12.07260        12.56924         8.59576
   C      -13.28994        13.18588         8.57318
   C      -13.78858        13.77098         9.75900
   C      -13.01174        13.69984        10.95180
   C      -13.51499        14.28263        12.13084
   C      -14.73233        14.90478        12.10555
   C      -15.51052        14.98635        10.94299
   C      -15.03746        14.42435         9.78976
   F      -15.21344        15.46304        13.23085
   C      -11.75031        13.05885        10.94348
   C      -11.28558        12.50618         9.78138
   C      -10.02559        11.83619         9.46592
   C       -8.88709        11.90249        10.23044
   C       -7.61846        11.50523         9.77344
   N       -6.56972        11.17828         9.43770
   C       -8.84097        12.40937        11.54349
   N       -8.74531        12.75797        12.63342
   H      -11.82962         7.52442        -0.93796
   H      -10.59291         6.91910        -3.16213
   H       -4.72431         5.03506        -2.39289
   H       -4.04427         5.06270         2.23196
   H       -0.22745         3.63973        -0.82240
   H        0.74857         3.53625         5.30483
   H        2.82479         2.64860         3.99364
   H       -1.68110         4.34958         5.49401
   H       -3.71093         6.00697         3.91300
   H       -9.23433         9.01424        12.09267
   H       -7.53796         9.35291        11.64903
   H       -8.94640         6.70139        11.03624
   H       -7.85667         6.96770        12.42469
   H       -9.67265        10.36592         6.35856
   H      -13.86532        13.23033         7.66066
   H      -12.94153        14.24236        13.04377
   H      -16.46316        15.49016        10.98320
   H      -15.61855        14.47479         8.88132
   H      -11.18600        13.01796        11.86177
*
