# ORCA input file
# SCF done       -215.170541145641          0.000815910169
! CAM-B3LYP def2-SVP def2/J RIJCOSX Grid4 TightSCF
%maxcore 5000
%tddft
    Mode sTDDFT
    Ethresh 5.0
    maxcore 5000
end

%pal
  nprocs 6
  end
* xyz 0 1
   C       -5.88535        -5.08635        -3.09713
   C       -6.25510        -5.01658        -4.43841
   C       -7.61025        -4.51521        -4.84951
   O       -8.16751        -4.92327        -5.82774
   O       -8.17145        -3.59203        -4.06045
   C       -5.38735        -5.47837        -5.44248
   C       -5.72721        -5.39186        -6.81698
   N       -5.88773        -5.33639        -7.94936
   C       -4.14185        -6.01964        -5.10911
   C       -3.79435        -6.08194        -3.77752
   C       -4.64545        -5.60944        -2.76507
   C       -3.98752        -5.79930        -1.47347
   C       -4.42884        -5.27258        -0.28608
   C       -5.59966        -4.49452        -0.17424
   N       -6.53453        -3.83876        -0.05557
   C       -3.76193        -5.36355         0.95424
   N       -3.27564        -5.38149         1.99428
   C       -2.75113        -6.51822        -1.70961
   C       -2.56449        -6.64740        -3.17123
   O       -1.64294        -7.14260        -3.78059
   C       -1.98815        -7.06681        -0.70848
   C       -0.73141        -7.68867        -0.74159
   C        0.24331        -7.80147        -1.73105
   C        1.37907        -8.44947        -1.27572
   C        1.28395        -8.85614         0.08002
   S       -0.19532        -8.41848         0.78528
   C        2.48499        -9.49930         0.44233
   C        3.35111        -9.49982        -0.66845
   C        2.68640        -8.83555        -1.78140
   C        3.20643        -8.60349        -3.01967
   C        4.50620        -9.02868        -3.37152
   N        5.56217        -9.37088        -3.65847
   C        2.50932        -7.90452        -4.03019
   N        1.97652        -7.32801        -4.86478
   C        4.58071       -10.09272        -0.40225
   C        4.66262       -10.54444         0.90769
   S        3.19094       -10.23911         1.81429
   C        5.76626       -11.15535         1.54907
   C        7.04034       -11.39529         1.02565
   O        7.29752       -11.04240        -0.24418
   C        8.61462       -11.13314        -0.75963
   C        7.91146       -11.98500         1.97540
   O        9.21512       -12.31613         1.71738
   C        9.46947       -13.70481         1.56139
   C        7.31201       -12.17623         3.21753
   S        5.65445       -11.67689         3.20016
   C        7.90688       -12.64766         4.41786
   C        9.25745       -12.76896         4.70513
   C        9.47088       -13.20645         6.00982
   C        8.27582       -13.41891         6.72292
   S        6.88995       -13.08574         5.78147
   C        8.59819       -13.83034         8.03733
   C       10.00512       -13.86247         8.16105
   C       10.59559       -13.50381         6.88329
   C       11.92087       -13.51616         6.56241
   C       12.89925       -13.85900         7.52040
   N       13.67335       -14.13655         8.31897
   C       12.37851       -13.21713         5.26187
   N       12.73649       -12.98227         4.19852
   C       10.42889       -14.25805         9.42003
   C        9.36478       -14.55034        10.26634
   S        7.81142       -14.28409         9.47321
   C        9.36873       -14.95648        11.61249
   C       10.39572       -15.41617        12.38693
   C       10.22732       -15.37233        13.86409
   O        9.20367       -15.17654        14.47436
   C       11.58981       -15.56426        14.41303
   C       12.48568       -15.82463        13.35902
   C       13.83775       -15.95293        13.61975
   C       14.29400       -15.86531        14.93584
   C       13.38306       -15.64580        15.98375
   C       12.01738       -15.47979        15.71805
   C       13.78011       -15.55704        17.33924
   N       14.05115       -15.49932        18.45267
   C       15.78914       -15.95349        15.11139
   O       16.52339       -15.65898        14.21126
   O       16.26907       -16.38047        16.27997
   C       11.72856       -15.90388        12.10711
   C       12.15072       -16.58025        10.99345
   C       11.32322       -16.85626         9.88721
   N       10.66492       -17.11490         8.98303
   C       13.42314       -17.18292        10.87402
   N       14.43116       -17.70973        10.73169
   H       -6.57623        -4.77945        -2.32660
   H       -7.62629        -3.32195        -3.30845
   H       -3.47129        -6.38337        -5.87277
   H       -2.41923        -7.03192         0.28572
   H        0.10027        -7.42277        -2.72708
   H        5.38845       -10.19996        -1.09995
   H        8.57402       -10.62389        -1.72138
   H        8.91129       -12.17298        -0.91323
   H        9.33567       -10.64178        -0.10511
   H        9.15105       -14.27576         2.43745
   H       10.54647       -13.79420         1.43782
   H        8.96091       -14.09863         0.67526
   H       10.02885       -12.50946         4.00382
   H       11.45510       -14.28331         9.73696
   H        8.43340       -14.82393        12.14901
   H       14.56822       -16.09851        12.83887
   H       11.31968       -15.28573        16.51868
   H       15.60908       -16.54903        16.96848
*
