# ORCA input file
# SCF done       -158.438778249155          0.001125275036
! CAM-B3LYP def2-SVP def2/J RIJCOSX Grid4 TightSCF
%maxcore 5000
%tddft
    Mode sTDDFT
    Ethresh 5.0
    maxcore 5000
end

%pal
  nprocs 6
  end
* xyz 0 1
   C        1.10676         0.85438         0.63334
   O        0.37616        -0.04686         0.27156
   C        0.78745         2.25867         0.82464
   C        1.87899         2.96426         1.32436
   C        1.59345         4.32632         1.53182
   C        0.30608         4.61193         1.18033
   S       -0.58545         3.25376         0.60650
   C        2.98591         2.05011         1.50581
   C        4.16114         2.33686         2.13949
   C        4.44455         3.63730         2.61226
   N        4.68420         4.69122         2.99512
   C        5.15810         1.39033         2.46149
   N        5.97112         0.65627         2.80138
   C        2.55291         0.76070         0.96964
   C        3.38467        -0.26761         0.66626
   C        3.08395        -1.53584         0.10451
   C        4.06055        -2.42206        -0.34500
   C        5.51257        -2.09843        -0.32340
   O        5.95932        -1.02955        -0.62931
   O        6.31636        -3.09861         0.07956
   C        3.51920        -3.64429        -0.81848
   C        2.14878        -3.67026        -0.67656
   S        1.49830        -2.23746        -0.03376
   C        4.27301        -4.69341        -1.47522
   S        5.50416        -4.30909        -2.63247
   C        5.79726        -5.98755        -2.96485
   C        4.95670        -6.79180        -2.20827
   C        4.09382        -6.05915        -1.37252
   S        2.97542        -6.72285        -0.18174
   C        3.23731        -8.47418        -0.10565
   O        2.78182        -9.05340         0.83814
   C        3.89393        -9.25776        -1.22429
   O        3.70006       -10.43831        -1.30414
   S        4.98222        -8.53778        -2.41401
   C        6.77158        -6.42016        -3.90285
   C        7.55498        -5.58697        -4.62105
   C        8.48916        -6.02074        -5.60616
   C        9.37571        -5.26303        -6.35317
   C        9.64168        -3.80858        -6.28251
   O        9.98757        -3.18795        -7.25155
   O        9.51859        -3.21320        -5.08647
   C       10.00644        -6.01415        -7.38708
   C        9.63989        -7.33015        -7.36658
   S        8.51880        -7.68438        -6.12533
   C       10.95965        -5.43583        -8.31465
   C       10.91845        -5.48261        -9.65605
   C       12.14070        -5.09769       -10.44548
   O       13.15011        -4.60301       -10.00819
   C       11.82512        -5.53019       -11.79977
   C       10.53726        -6.05311       -11.87984
   C        9.89190        -5.94567       -10.58755
   C        8.54995        -6.09714       -10.38035
   C        7.68985        -6.53289       -11.41415
   N        6.97558        -6.90764       -12.22940
   C        7.83217        -5.79534        -9.20567
   N        7.14153        -5.54755        -8.32254
   C       10.21014        -6.48553       -13.18040
   C       11.25176        -6.28470       -14.03683
   S       12.63615        -5.56547       -13.30289
   H        2.28718         5.05426         1.90953
   H       -0.18084         5.56640         1.23103
   H        4.44547        -0.10173         0.81459
   H        5.82803        -3.87722         0.37899
   H        1.49616        -4.46239        -0.98689
   H        6.86256        -7.49131        -4.02801
   H        7.42835        -4.51858        -4.49502
   H        9.34310        -3.83004        -4.36394
   H        9.99382        -8.11580        -8.00523
   H       11.83058        -4.95502        -7.88139
   H        9.27319        -6.92238       -13.47179
   H       11.28290        -6.51945       -15.08303
*
