# ORCA input file
# SCF done       -191.737245332572          0.000611871469
! CAM-B3LYP def2-SVP def2/J RIJCOSX Grid4 TightSCF
%maxcore 5000
%tddft
    Mode sTDDFT
    Ethresh 5.0
    maxcore 5000
end

%pal
  nprocs 6
  end
* xyz 0 1
   C        5.65807         3.85462        -1.58335
   O        6.70249         3.42060        -2.03745
   C        5.04993         5.15822        -1.81918
   C        3.85918         5.28604        -1.11692
   C        3.24098         6.53386        -1.32188
   C        3.97756         7.30911        -2.16889
   S        5.42251         6.55460        -2.73114
   C        3.61940         4.06154        -0.37268
   C        2.53651         3.84907         0.44248
   C        1.54059         4.83224         0.61623
   N        0.71989         5.61924         0.77286
   C        2.27610         2.68436         1.19006
   N        1.99819         1.76908         1.82622
   C        4.72452         3.17168        -0.66768
   C        4.87091         1.89247        -0.18965
   C        5.87960         0.95551        -0.42214
   S        7.32090         1.12476        -1.39695
   C        7.85781        -0.50511        -1.05826
   C        6.94439        -1.16938        -0.20944
   C        5.86051        -0.33131         0.13182
   S        4.72492        -1.08931         1.18373
   C        5.69804        -2.53681         1.16905
   C        5.25568        -3.68493         1.96691
   O        5.81944        -4.75396         2.00714
   O        4.15285        -3.36807         2.64132
   C        3.59283        -4.32908         3.53870
   C        3.08781        -3.61256         4.77673
   C        6.82449        -2.43852         0.40299
   C        9.05717        -0.92665        -1.63691
   C        9.60224        -2.18545        -1.53330
   C       10.80025        -2.57757        -2.11949
   C       11.29416        -3.86704        -2.01932
   C       12.48160        -4.39218        -2.56526
   C       12.67816        -5.72207        -2.30403
   C       11.65136        -6.30444        -1.54074
   S       10.43279        -5.12044        -1.15006
   C       11.50477        -7.62043        -1.11762
   C       12.34233        -8.72763        -1.33872
   C       11.86408        -9.88991        -0.79884
   C       10.62915        -9.75083        -0.12981
   S       10.09863        -8.08851        -0.19166
   C        9.90250       -10.75817         0.47496
   C        8.67538       -10.62863         1.11585
   S        7.81112        -9.12335         1.33713
   C        6.47874        -9.87965         2.18746
   C        6.69547       -11.27080         2.26695
   C        7.91730       -11.66350         1.67824
   S        8.18211       -13.36824         1.75209
   C        6.64549       -13.55979         2.55230
   C        6.17569       -14.90964         2.88690
   O        6.74503       -15.92461         2.56852
   O        5.04178       -14.84997         3.59211
   C        4.39129       -16.08608         3.89181
   C        3.48155       -16.50806         2.74747
   C        5.97979       -12.38635         2.75449
   C        5.44269        -9.06806         2.65709
   C        4.39667        -9.47796         3.44738
   C        3.41095        -8.59083         3.89355
   C        2.34372        -8.84839         4.71865
   C        1.66014        -7.69639         5.37121
   O        1.78331        -6.52332         5.08806
   C        0.86334        -8.30791         6.42973
   C        0.96429        -9.69181         6.38937
   C        1.79106       -10.07184         5.25308
   C        1.83007       -11.34721         4.74417
   C        1.23313       -12.43559         5.41235
   N        0.78357       -13.35184         5.93816
   C        2.35221       -11.72647         3.49522
   N        2.71549       -12.11284         2.47575
   C        0.21451       -10.32006         7.40124
   C       -0.42255        -9.39795         8.17899
   S       -0.14317        -7.76542         7.70024
   H        2.31419         6.84788        -0.87907
   H        3.74942         8.30256        -2.50237
   H        4.09258         1.52038         0.46728
   H        4.36272        -5.06678         3.78703
   H        2.76706        -4.83253         3.02693
   H        2.39969        -2.82231         4.48963
   H        3.91374        -3.17466         5.33169
   H        2.56743        -4.32963         5.40285
   H        7.51072        -3.25994         0.31614
   H        9.58232        -0.18381        -2.22407
   H        9.06993        -2.93756        -0.97054
   H       11.37734        -1.85803        -2.68427
   H       13.15726        -3.78095        -3.13709
   H       13.52735        -6.28679        -2.64457
   H       13.26385        -8.64900        -1.88682
   H       12.36061       -10.84144        -0.86770
   H       10.31440       -11.75870         0.44056
   H        3.81579       -15.88996         4.79888
   H        5.15052       -16.85122         4.08438
   H        2.78026       -15.70932         2.51762
   H        2.92850       -17.39882         3.03036
   H        4.07302       -16.72511         1.86104
   H        4.99977       -12.37048         3.18836
   H        5.49583        -8.02309         2.37474
   H        4.36038       -10.50136         3.77829
   H        3.53543        -7.54427         3.63475
   H        0.14889       -11.38052         7.55896
   H       -1.05741        -9.58846         9.02212
*
