# ORCA input file
# SCF done       -196.028233459916          0.000986324573
! CAM-B3LYP def2-SVP def2/J RIJCOSX Grid4 TightSCF
%maxcore 5000
%tddft
    Mode sTDDFT
    Ethresh 5.0
    maxcore 5000
end

%pal
  nprocs 6
  end
* xyz 0 1
   C      -11.83101         0.68326        -3.95296
   O      -10.63114         0.80262        -3.97814
   C      -12.62290        -0.56997        -3.90568
   C      -13.96237        -0.30175        -4.23945
   C      -14.90872        -1.31472        -4.22359
   C      -14.49438        -2.58502        -3.85633
   C      -13.16690        -2.86799        -3.53790
   C      -12.21198        -1.85245        -3.58561
   F      -10.94459        -2.12658        -3.30816
   F      -12.81867        -4.10529        -3.17105
   F      -15.39102        -3.57317        -3.79945
   C      -14.10570         1.12313        -4.53503
   C      -15.23586         1.73366        -5.00502
   C      -16.44477         1.06096        -5.28910
   N      -17.45158         0.57229        -5.54016
   C      -15.33875         3.11124        -5.29831
   N      -15.48590         4.22004        -5.55416
   C      -12.84502         1.75877        -4.20262
   C      -12.54872         3.08337        -4.14149
   C      -11.40630         3.57656        -3.45144
   C      -10.67063         4.82003        -3.70825
   N       -9.74882         5.08326        -2.82923
   C       -9.81147         4.07621        -1.91274
   C      -10.82164         3.08397        -2.30516
   C      -10.99054         2.10482        -1.26116
   S      -12.14037         0.92004        -1.23496
   C      -10.05468         2.49531        -0.24566
   C       -9.33591         3.70832        -0.68031
   N       -8.46738         4.12196         0.28215
   C       -8.62468         3.30330         1.27752
   C       -9.63282         2.25507         1.05233
   C      -10.01322         1.23545         1.95910
   S      -10.78940        -0.19121         1.34870
   C      -10.90967        -0.86714         2.94012
   C      -10.36938        -0.00438         3.89986
   C       -9.85527         1.17044         3.34843
   C       -9.23213         2.23728         4.19280
   C       -9.58135         2.04812         5.66525
   C       -9.31162         0.60631         6.08986
   O       -9.46179         0.53841         7.49023
   C       -8.95886        -0.63010         8.08969
   C      -10.29883        -0.31833         5.35943
   C      -11.50262        -2.14306         3.10784
   C      -12.13174        -2.67915         4.32738
   N      -12.60458        -3.88089         4.20339
   C      -12.33079        -4.25785         2.92198
   C      -11.68375        -3.15810         2.18630
   C      -11.33926        -3.59413         0.86025
   S      -10.53172        -2.79215        -0.32479
   C      -11.79121        -4.96567         0.81059
   C      -12.40312        -5.34655         2.09311
   N      -12.78979        -6.65242         2.06798
   C      -12.40167        -7.11294         0.91771
   C      -11.73267        -6.11722         0.06312
   C      -11.21549        -6.33366        -1.24386
   C      -10.68311        -7.48764        -1.71698
   C      -10.54476        -7.71487        -3.18653
   O      -10.62015        -6.89135        -4.05740
   C      -10.34544        -9.18207        -3.31273
   C      -10.22378        -9.76199        -2.03499
   C      -10.28087        -8.69945        -1.03179
   C       -9.81797        -8.78245         0.25288
   C       -9.37917        -9.98170         0.85516
   N       -9.03653       -10.93750         1.38803
   C       -9.62295        -7.65715         1.08512
   N       -9.37225        -6.77282         1.77166
   C      -10.05790       -11.12849        -1.88798
   C      -10.01139       -11.90541        -3.03652
   C      -10.11821       -11.34865        -4.31090
   C      -10.28794        -9.96890        -4.45086
   F      -10.39372        -9.44429        -5.66465
   F      -10.06124       -12.12979        -5.38955
   F       -9.86213       -13.22463        -2.92202
   H      -15.94580        -1.15579        -4.46847
   H      -13.22099         3.82497        -4.55280
   H      -10.82886         5.46664        -4.55356
   H       -8.00197         3.39596         2.14735
   H       -9.56455         3.22196         3.85844
   H       -8.14437         2.18986         4.07714
   H      -10.63401         2.27233         5.84148
   H       -8.98773         2.72076         6.28345
   H       -8.27958         0.32759         5.81456
   H       -9.00977        -0.46445         9.16380
   H       -7.91666        -0.80790         7.79851
   H       -9.55363        -1.51451         7.83633
   H      -11.28123        -0.16654         5.81862
   H      -10.01548        -1.36406         5.49737
   H      -12.26889        -2.14351         5.24832
   H      -12.63118        -8.12337         0.62619
   H      -11.30628        -5.51837        -1.95271
   H       -9.97337       -11.60957        -0.92725
*
