# ORCA input file
# SCF done       -221.206965087081          0.000569048639
! CAM-B3LYP def2-SVP def2/J RIJCOSX Grid4 TightSCF
%maxcore 5000
%tddft
    Mode sTDDFT
    Ethresh 5.0
    maxcore 5000
end

%pal
  nprocs 6
  end
* xyz 0 1
   C        5.58443         1.52970         3.57023
   C        4.80384         2.79942         3.55326
   O        3.70285         2.95269         3.07102
   C        5.63386         3.77162         4.28818
   C        6.85964         3.18778         4.61291
   C        6.92351         1.84864         4.04037
   C        8.06105         1.12696         3.81118
   C        8.12279        -0.00903         2.97512
   N        8.27084        -0.87480         2.23683
   C        9.33916         1.48751         4.28588
   N       10.39808         1.71575         4.66564
   C        7.81494         3.89900         5.35228
   C        7.52753         5.18123         5.73892
   C        6.30602         5.80896         5.40823
   C        5.32287         5.09300         4.66534
   C        4.10426         5.72277         4.34027
   C        3.87114         7.01219         4.73204
   C        4.83690         7.72264         5.46273
   C        6.02677         7.13525         5.79495
   C        4.97510         0.35079         3.31880
   C        5.48852        -0.98820         3.51119
   C        5.26671        -1.89654         2.49047
   C        5.87842        -3.15252         2.49588
   C        6.67341        -3.49659         3.57728
   C        6.84030        -2.65498         4.68130
   C        6.22729        -1.37819         4.66101
   C        6.32738        -0.54102         5.80532
   C        7.07740        -0.89908         6.87389
   C        7.77363        -2.13784         6.90396
   C        7.63726        -3.04005         5.82312
   C        8.28812        -4.28077         5.91965
   C        9.05141        -4.60153         7.01543
   C        9.19625        -3.69927         8.07007
   C        8.56128        -2.48624         8.01322
   C        5.74000        -4.08130         1.36901
   C        5.74668        -5.43255         1.58769
   C        5.73526        -6.33377         0.49782
   C        5.84670        -7.71281         0.44535
   C        5.99172        -8.70726         1.55007
   C        7.45003        -8.79874         2.04833
   N        7.90269        -7.53208         2.59922
   C        5.05368        -8.45885         2.74188
   N        4.84107        -9.71234         3.45028
   C        5.88156        -8.07073        -0.95587
   C        6.08225        -9.25316        -1.56407
   C        6.17857        -9.36408        -3.04690
   C        5.87396        -8.09653        -3.78448
   C        5.69003        -6.91793        -3.16073
   C        5.72883        -6.84224        -1.74884
   C        5.65857        -5.79292        -0.85499
   C        5.59596        -4.39262        -1.04219
   C        5.64932        -3.56888         0.03528
   C        5.32609       -10.50407        -3.54374
   C        5.82035       -11.54683        -4.20061
   C        5.06629       -12.72234        -4.63932
   C        5.62171       -13.95241        -4.36196
   C        4.93049       -15.13931        -4.63571
   C        3.69392       -15.06823        -5.25850
   C        3.11811       -13.84580        -5.61214
   C        3.81945       -12.64899        -5.31104
   C        3.28856       -11.40683        -5.75459
   C        2.10217       -11.34041        -6.40278
   C        1.32798       -12.50718        -6.65094
   C        1.83027       -13.77130        -6.26401
   C        1.03523       -14.89839        -6.52551
   C       -0.18637       -14.78478        -7.14311
   C       -0.67036       -13.53550        -7.53177
   C        0.07933       -12.41447        -7.28656
   C        5.53076       -16.40456        -4.28357
   C        4.91338       -17.53438        -3.87908
   C        5.64682       -18.83433        -3.89582
   O        6.84678       -18.97137        -3.99043
   C        4.59922       -19.86663        -3.83070
   C        3.35535       -19.25883        -3.64475
   C        3.53699       -17.81901        -3.50930
   C        2.65913       -16.95106        -2.91703
   C        2.98789       -15.62906        -2.54752
   N        3.21414       -14.57498        -2.15349
   C        1.35037       -17.29596        -2.52301
   N        0.26760       -17.51730        -2.21191
   C        2.18761       -20.03206        -3.58156
   C        2.29162       -21.39320        -3.69478
   C        3.53613       -22.04026        -3.86431
   C        4.72965       -21.26524        -3.93865
   C        5.96922       -21.91406        -4.11006
   C        6.02423       -23.27772        -4.20008
   C        4.85173       -24.04630        -4.12600
   C        3.63484       -23.44262        -3.96301
   H        8.75343         3.44276         5.62194
   H        8.25085         5.74200         6.31332
   H        3.36975         5.16716         3.77898
   H        2.93855         7.49485         4.48058
   H        4.63188         8.74002         5.76169
   H        6.77184         7.67976         6.35702
   H        3.97529         0.42781         2.90130
   H        4.65460        -1.59880         1.65203
   H        7.18916        -4.44164         3.54488
   H        5.77218         0.38543         5.82734
   H        7.14895        -0.25032         7.73551
   H        8.19834        -5.00582         5.12670
   H        9.54478        -5.56121         7.06259
   H        9.80146        -3.96166         8.92511
   H        8.65483        -1.77832         8.82452
   H        5.78293        -5.82407         2.59027
   H        5.74140        -9.69468         1.14585
   H        8.08129        -9.15665         1.21636
   H        7.47578        -9.54127         2.84933
   H        7.97104        -6.83844         1.86065
   H        8.82442        -7.64284         3.00744
   H        4.11920        -7.99805         2.38054
   H        5.53666        -7.77253         3.43835
   H        4.29968       -10.35385         2.87907
   H        4.32260        -9.54995         4.30628
   H        6.21304       -10.17314        -1.00979
   H        7.22715        -9.62608        -3.27062
   H        5.84748        -8.17368        -4.86124
   H        5.50873        -6.01693        -3.72937
   H        5.53736        -3.99274        -2.04421
   H        5.66186        -2.49872        -0.10475
   H        4.27362       -10.43261        -3.31037
   H        6.89097       -11.61058        -4.36298
   H        6.58007       -14.00788        -3.86582
   H        3.19733       -15.99223        -5.50958
   H        3.86595       -10.51091        -5.58943
   H        1.71676       -10.39105        -6.74650
   H        1.36959       -15.88197        -6.23456
   H       -0.77874       -15.66893        -7.32719
   H       -1.63103       -13.45799        -8.01861
   H       -0.28307       -11.43825        -7.57559
   H        6.60824       -16.47594        -4.39586
   H        1.22383       -19.56554        -3.45678
   H        1.40072       -22.00312        -3.65239
   H        6.86320       -21.31325        -4.16573
   H        6.97430       -23.77436        -4.32906
   H        4.91840       -25.12174        -4.19925
   H        2.73118       -24.03213        -3.90534
*
