# ORCA input file
# SCF done       -165.573445701466          0.000539539118
! CAM-B3LYP def2-SVP def2/J RIJCOSX Grid4 TightSCF
%maxcore 5000
%tddft
    Mode sTDDFT
    Ethresh 5.0
    maxcore 5000
end

%pal
  nprocs 6
  end
* xyz 0 1
   O       -4.55890         4.43060         1.01681
   C       -3.60963         4.79696         0.10822
   N       -4.06923         5.63154        -0.77846
   C       -5.37469         5.83723        -0.45898
   C       -5.66265         5.08400         0.65968
   C       -6.24587         6.72329        -1.22736
   O       -7.40238         6.93057        -0.96946
   C       -2.26849         4.29258         0.16367
   N       -1.39097         4.70179        -0.72774
   C       -0.23710         4.06110        -0.42479
   C       -0.40304         3.18664         0.73812
   C        0.86126         2.50316         1.04783
   O        1.10255         1.70945         1.93309
   C        1.77508         3.02256         0.00990
   C        1.06058         3.97233        -0.86889
   N        1.89142         4.45623        -1.82536
   C        3.04537         3.88036        -1.60026
   C        3.04367         2.97160        -0.46636
   C       -1.71585         3.32294         1.13759
   C       -2.42841         2.71568         2.20711
   C       -1.85774         1.82483         3.05473
   C       -2.49470         1.16627         4.15854
   C       -1.74971         0.26422         4.89898
   C       -2.32695        -0.40406         5.98953
   C       -1.79638        -1.34526         6.87001
   C       -0.41223        -1.88923         6.85109
   C        0.31133        -1.69841         8.20070
   N        1.71604        -1.44866         7.95474
   C       -0.41207        -3.36873         6.41668
   N       -0.80983        -3.45554         5.02693
   C       -2.85426        -1.69980         7.78644
   C       -2.88894        -2.55170         8.82889
   C       -4.13732        -2.76540         9.62089
   C       -5.29341        -1.91633         9.21149
   C       -5.23809        -1.05466         8.17801
   C       -4.04913        -0.91939         7.42431
   C       -3.71655        -0.14119         6.33239
   C       -4.45674         0.78593         5.56354
   C       -3.86184         1.41300         4.51713
   C       -4.43162        -4.24006         9.54344
   C       -5.40494        -4.77958         8.79663
   C       -5.62270        -6.19273         8.76355
   N       -4.86456        -7.02732         9.46048
   C       -5.35158        -8.25866         9.21922
   C       -6.50507        -8.20862         8.30617
   C       -7.02693        -9.56556         8.06168
   O       -7.96484        -9.89983         7.37135
   C       -6.12550       -10.40704         8.86766
   C       -5.11891        -9.57103         9.55573
   N       -4.28720       -10.33811        10.29965
   C       -4.70622       -11.56897        10.12100
   C       -5.84902       -11.68384         9.23941
   C       -6.68722        -6.88319         8.00053
   C       -7.65253        -6.24841         7.16301
   C       -8.63504        -6.91256         6.52026
   C       -9.59371        -6.25498         5.68999
   N      -10.58569        -6.81795         5.06467
   C      -11.23199        -5.81252         4.40486
   C      -10.56979        -4.63532         4.67298
   O       -9.54184        -4.90454         5.47926
   C      -12.41358        -6.04210         3.58293
   O      -13.01062        -5.18265         2.98749
   H       -6.55728         4.95424         1.23439
   H       -5.73095         7.19019        -2.08323
   H        3.89242         4.09502        -2.22843
   H        3.88597         2.40588        -0.12006
   H       -3.46358         2.99864         2.31609
   H       -0.81759         1.56775         2.90179
   H       -0.72190         0.07332         4.62950
   H        0.16433        -1.33772         6.10429
   H        0.12828        -2.57380         8.84730
   H       -0.09395        -0.81662         8.70566
   H        2.15749        -2.25078         7.51944
   H        2.20891        -1.23943         8.81449
   H       -1.05890        -3.94896         7.09809
   H        0.60407        -3.76557         6.49209
   H       -1.76458        -3.13470         4.90732
   H       -0.74506        -4.40701         4.68580
   H       -2.03218        -3.13869         9.12456
   H       -3.90398        -2.54781        10.67523
   H       -6.19384        -2.03556         9.79479
   H       -6.09606        -0.45368         7.91395
   H       -5.48742         0.98614         5.81737
   H       -4.42844         2.12195         3.93445
   H       -3.79116        -4.90071        10.11040
   H       -6.05781        -4.15207         8.20713
   H       -4.20884       -12.38743        10.61196
   H       -6.33811       -12.59812         8.96755
   H       -7.58025        -5.17476         7.04834
   H       -8.75167        -7.98389         6.60260
   H      -10.73838        -3.62500         4.36059
   H      -12.71758        -7.10254         3.55827
*
