# ORCA input file
# SCF done       -211.230938569611          0.001520079265
! CAM-B3LYP def2-SVP def2/J RIJCOSX Grid4 TightSCF
%maxcore 5000
%tddft
    Mode sTDDFT
    Ethresh 5.0
    maxcore 5000
end

%pal
  nprocs 6
  end
* xyz 0 1
   C        7.35517         7.28307        -1.85028
   C        6.80505         8.44956        -2.30483
   F        7.12629         9.60930        -1.70857
   C        5.90587         8.48778        -3.38072
   C        5.56494         7.31851        -4.00096
   C        6.10070         6.08585        -3.57221
   C        7.01159         6.06770        -2.47404
   C        7.54949         4.84346        -2.01533
   C        7.18443         3.67614        -2.63170
   C        6.28929         3.70215        -3.74333
   C        5.75504         4.87236        -4.20552
   C        6.08850         2.33369        -4.24427
   O        5.35189         1.94458        -5.11875
   C        7.04249         1.49270        -3.45383
   C        7.53172         2.29091        -2.33939
   C        8.03011         1.81779        -1.16061
   C        8.43189         2.64486        -0.08910
   N        8.77118         3.27331         0.80821
   C        8.09649         0.44563        -0.83685
   N        8.09751        -0.65177        -0.50120
   C        7.41101         0.27435        -3.89655
   C        8.52109        -0.49733        -3.40860
   N        9.68165         0.08166        -3.18959
   C       10.52771        -0.90984        -2.80320
   C        9.84153        -2.19870        -2.77905
   C       10.75394        -3.26912        -2.34314
   O       10.53243        -4.45107        -2.22305
   C       12.01284        -2.52779        -2.09806
   C       11.82438        -1.08868        -2.39861
   N       12.96951        -0.39767        -2.16576
   C       13.82774        -1.29048        -1.74587
   C       13.29354        -2.64202        -1.67291
   C        8.53941        -1.96049        -3.15316
   C        7.48093        -2.90104        -3.18005
   C        6.17589        -2.66714        -3.47664
   C        5.19532        -3.68600        -3.43141
   C        3.91546        -3.50892        -3.85837
   C        2.91834        -4.50586        -3.77769
   O        1.70475        -4.29102        -4.34237
   C        0.91227        -5.36630        -4.08747
   C        1.63918        -6.29528        -3.33168
   C        2.92166        -5.75564        -3.14575
   O        3.94897        -6.31650        -2.48423
   O        1.25443        -7.49495        -2.85048
   C       -0.39937        -5.47139        -4.57626
   C       -0.99955        -4.60746        -5.44693
   C       -2.31625        -4.84758        -5.89049
   N       -3.09215        -5.76486        -5.30140
   C       -4.26968        -5.72743        -5.93675
   C       -4.26633        -4.70586        -6.99307
   C       -5.52207        -4.72351        -7.76015
   O       -5.81493        -4.04469        -8.72379
   C       -6.28307        -5.78365        -7.08560
   C       -5.49219        -6.36538        -5.97776
   N       -6.16937        -7.37350        -5.38663
   C       -7.30162        -7.46347        -6.05061
   C       -7.43093        -6.51332        -7.12918
   C       -3.01494        -4.15305        -6.99341
   C       -2.57009        -3.26140        -8.01395
   C       -1.32770        -3.11492        -8.51549
   C       -1.11123        -2.38594        -9.73098
   C       -1.96868        -2.35729       -10.77848
   C       -1.87626        -1.28404       -11.81358
   O       -0.93296        -0.55589       -12.01512
   C       -3.20037        -1.26872       -12.46344
   C       -3.70905        -0.37790       -13.36536
   C       -5.04002        -0.53469       -13.81261
   C       -5.83060        -1.60678       -13.30226
   C       -7.16336        -1.74216       -13.73793
   C       -7.66761        -0.84988       -14.64222
   C       -6.90596         0.20745       -15.15963
   C       -5.61177         0.35585       -14.74528
   F       -8.93972        -0.97623       -15.06080
   C       -5.27806        -2.51951       -12.37544
   C       -3.97847        -2.35982       -11.97744
   C       -3.15696        -3.15042       -11.07015
   C       -3.36075        -4.47080       -10.78342
   C       -2.45797        -5.27568       -10.05896
   N       -1.74771        -5.99141        -9.50990
   C       -4.47144        -5.21202       -11.24219
   N       -5.33940        -5.87026       -11.60117
   H        8.04157         7.29007        -1.01784
   H        5.50380         9.43815        -3.69425
   H        4.87509         7.32366        -4.83146
   H        8.24362         4.85696        -1.18971
   H        5.07461         4.87124        -5.04408
   H        6.87471        -0.11831        -4.75420
   H       14.83359        -1.00208        -1.49378
   H       13.83700        -3.50772        -1.34968
   H        7.77815        -3.90795        -2.91290
   H        5.84214        -1.67594        -3.75175
   H        5.48945        -4.64990        -3.04307
   H        3.60637        -2.57144        -4.30094
   H        3.66121        -7.17023        -2.13148
   H        0.33818        -7.67948        -3.09020
   H       -0.97976        -6.33022        -4.26611
   H       -0.46501        -3.74667        -5.81709
   H       -8.03334        -8.20233        -5.77338
   H       -8.26677        -6.43167        -7.79528
   H       -3.38589        -2.75759        -8.52155
   H       -0.46411        -3.54641        -8.03046
   H       -0.21526        -1.78088        -9.81677
   H       -3.10636         0.44067       -13.72962
   H       -7.77548        -2.54648       -13.36130
   H       -7.35796         0.88039       -15.87120
   H       -5.00687         1.16360       -15.12909
   H       -5.89624        -3.31020       -11.98089
*
