# ORCA input file
# SCF done       -212.417417719588          0.000714583621
! CAM-B3LYP def2-SVP def2/J RIJCOSX Grid4 TightSCF
%maxcore 5000
%tddft
    Mode sTDDFT
    Ethresh 5.0
    maxcore 5000
end

%pal
  nprocs 6
  end
* xyz 0 1
   C       -8.96812        -5.04323         1.16806
   C       -7.82699        -4.38254         0.79142
   C       -6.70827        -5.01050         0.20252
   N       -5.76856        -5.45873        -0.28059
   C       -7.59185        -2.99708         0.91835
   N       -7.32007        -1.88258         0.98430
   C       -9.20196        -6.47380         1.01611
   C      -10.50704        -6.77385         1.47634
   C      -11.02364        -8.04676         1.47033
   C      -10.21345        -9.07667         0.98250
   C       -8.90995        -8.76896         0.52262
   C       -8.38779        -7.48195         0.53144
   S       -8.07874       -10.18841        -0.03663
   C       -9.47324       -11.16180         0.34880
   C      -10.50957       -10.46219         0.86968
  Br       -9.42943       -13.00857         0.02780
   C      -11.16969        -5.53657         1.93124
   O      -12.29233        -5.45258         2.37896
   C      -10.16399        -4.45821         1.75665
   C      -10.26462        -3.17223         2.19765
   C      -11.38802        -2.48928         2.73383
   C      -12.72120        -2.66896         2.46250
   C      -13.46317        -1.59996         3.07940
   C      -14.85789        -1.46928         3.03793
   N      -15.99788        -1.34450         2.98965
   C      -12.58647        -0.73636         3.69332
   C      -11.26233        -1.25067         3.52837
   C      -10.10991        -0.76142         4.10520
   C       -9.88853         0.61721         4.62584
   C       -8.67773         0.60823         5.28425
   C       -8.11332        -0.70009         5.18356
   C       -8.95434        -1.51198         4.44406
   C       -6.89695        -1.08913         5.76331
   N       -5.90483        -1.40151         6.24790
   C      -10.71055         1.72458         4.34482
   C      -10.59951         2.95840         4.93443
   C      -11.46990         4.01534         4.63781
   C      -11.42564         5.22726         5.27812
   C      -12.32337         6.27403         5.03193
   O      -12.23335         7.42118         5.75565
   C      -13.22644         8.26082         5.36557
   C      -13.97367         7.64173         4.35373
   C      -13.40522         6.38125         4.13894
   O      -13.80728         5.44991         3.25862
   O      -15.04826         8.10248         3.67094
   C      -13.42200         9.50853         5.98434
   C      -12.59552        10.01284         6.95028
   C      -12.78249        11.21928         7.65327
   C      -11.77708        11.95295         8.24079
   C      -12.31643        13.20902         8.65985
   C      -11.57898        14.21433         9.30212
   N      -10.96153        15.03356         9.81640
   C      -13.66012        13.26894         8.33338
   C      -14.03100        12.02138         7.76841
   C      -15.32091        11.56483         7.59341
   C      -16.53933        12.38034         7.45657
   C      -17.61057        11.52296         7.49323
   C      -17.12303        10.17968         7.65756
   C      -15.74804        10.20164         7.69068
   C      -17.92853         9.03652         7.74106
   N      -18.58023         8.09205         7.77536
   C      -16.56677        13.77640         7.18566
   C      -17.65173        14.56887         7.38240
   C      -17.65606        15.95148         7.08985
   C      -18.59309        16.86279         7.47791
   C      -19.66600        16.76718         8.44273
   C      -19.67486        15.98701         9.57122
   C      -20.73367        15.96759        10.50211
   N      -21.58068        15.89772        11.27336
   C      -18.57942        15.20330         9.99116
   N      -17.69574        14.59597        10.40127
   C      -20.62137        17.82606         8.13432
   C      -20.04726        18.68596         7.16289
   C      -18.72367        18.16188         6.76718
   O      -17.93191        18.64848         5.99298
   C      -20.69142        19.80778         6.70084
   C      -21.96323        20.08826         7.21205
   C      -22.53216        19.21602         8.17126
   C      -21.87821        18.08545         8.64584
   S      -24.11239        19.74584         8.65969
   C      -23.98883        21.11576         7.58776
   C      -22.82530        21.17398         6.89703
  Br      -25.40780        22.33690         7.48060
   H      -12.02214        -8.24013         1.82990
   H       -7.38788        -7.30194         0.17419
   H      -11.44441       -10.90350         1.16335
   H       -9.37028        -2.56530         2.14091
   H      -13.16297        -3.43992         1.86296
   H      -12.86431         0.10020         4.30559
   H       -8.18915         1.43810         5.75766
   H       -8.81056        -2.56254         4.28040
   H      -11.48594         1.59345         3.60287
   H       -9.84178         3.12333         5.68769
   H      -12.22719         3.85820         3.88315
   H      -10.68083         5.41263         6.03973
   H      -14.58464         5.78329         2.78851
   H      -15.30713         8.97312         3.99116
   H      -14.27889        10.08010         5.65465
   H      -11.67908         9.47457         7.15537
   H      -10.74407        11.67250         8.32502
   H      -14.33212        14.05615         8.61607
   H      -18.64826        11.77496         7.38322
   H      -15.11157         9.36099         7.88867
   H      -15.65174        14.23016         6.82826
   H      -18.55265        14.13354         7.79010
   H      -16.88064        16.32855         6.43108
   H      -20.22919        20.45055         5.96819
   H      -22.35135        17.44697         9.37362
   H      -22.58327        21.94985         6.19395
*
