# ORCA input file
# SCF done       -236.337887917015          0.000953677480
! CAM-B3LYP def2-SVP def2/J RIJCOSX Grid4 TightSCF
%maxcore 5000
%tddft
    Mode sTDDFT
    Ethresh 5.0
    maxcore 5000
end

%pal
  nprocs 6
  end
* xyz 0 1
   C        1.08741         3.10758        -4.09068
   C        0.36059         4.21805        -4.41835
   C        0.67233         5.07079        -5.50101
   N        0.88427         5.80918        -6.35300
   C       -0.81722         4.63286        -3.76635
   N       -1.79059         5.01770        -3.29334
   C        2.20086         2.56146        -4.84964
   C        2.45179         1.22658        -4.41205
   C        3.43554         0.46160        -4.97089
   C        4.22869         1.00568        -6.00552
   C        3.99511         2.34529        -6.43485
   C        2.97054         3.11417        -5.84027
   C        4.80106         2.88064        -7.46087
   C        5.78770         2.12963        -8.03907
   C        6.01512         0.81055        -7.61773
   C        5.25251         0.26056        -6.62310
   C        1.54119         0.88988        -3.30844
   O        1.42521        -0.15073        -2.71267
   C        0.81593         2.17054        -3.00833
   C        0.24560         2.33424        -1.80397
   C       -0.23783         3.56806        -1.20969
   C       -1.54741         3.66156        -0.71861
   C       -2.50368         2.54284        -0.83594
   O       -2.32339         1.49162        -1.37323
   S       -4.03239         3.00875        -0.04027
   C       -3.43191         4.65146         0.38907
   O       -4.08627         5.41647         1.02895
   C       -2.05901         4.81452        -0.13780
   C       -1.29027         5.99024        -0.03051
   C        0.01934         5.90407        -0.54354
   C        0.53941         4.72711        -1.08073
   C        1.95508         4.82409        -1.50044
   O        2.67536         3.94932        -1.88541
   S        2.49464         6.51817        -1.34872
   C        0.90732         7.07057        -0.69831
   O        0.66565         8.22403        -0.51371
   C       -1.80296         7.19567         0.57304
   S       -0.89680         7.99695         1.83577
   C       -2.99028         7.83366         0.28138
   C       -3.18527         8.97787         1.05858
   C       -4.15805        10.05966         1.22568
   C       -5.33855        10.21771         0.58388
   C       -5.81509         9.22762        -0.44685
   N       -5.18698         9.41305        -1.74940
   C       -6.20304        11.42385         0.84341
   N       -7.34244        11.50178        -0.05306
   C       -2.11920         9.18172         1.95368
   C       -2.36039        10.35237         2.69327
   S       -1.58300        11.25355         3.91634
   C       -3.58187        10.91345         2.26725
   C       -3.87590        12.08031         2.96773
   C       -2.89274        12.41932         3.88772
   C       -2.86981        13.57862         4.69905
   C       -1.86671        13.87049         5.55895
   C       -1.76354        15.03387         6.38680
   C       -1.18944        14.93872         7.68084
   C       -0.66936        13.68525         8.25690
   O       -0.66338        12.58619         7.79021
   S        0.01012        14.02355         9.89479
   C       -0.46633        15.73965         9.84959
   O       -0.30815        16.49401        10.76371
   C       -1.07925        16.02739         8.53544
   C       -1.49564        17.30876         8.16292
   C       -2.01277        17.41968         6.87241
   C       -2.14753        16.34067         6.00089
   C       -2.56182        16.75144         4.64650
   O       -2.67859        16.10332         3.65066
   S       -2.85330        18.53985         4.62569
   C       -2.36223        18.74110         6.32361
   O       -2.30699        19.79056         6.89603
   C       -1.38704        18.47724         9.03292
   C       -0.20490        19.04069         9.32893
   C        0.08776        20.17206        10.20141
   C       -0.82792        20.95767        10.83986
   C       -0.49240        22.05532        11.66296
   N       -0.28090        22.95900        12.33746
   C       -2.22742        20.77951        10.76949
   N       -3.37080        20.68267        10.76868
   C        1.53665        20.30181        10.26481
   C        2.13352        19.31286         9.42691
   C        1.08413        18.51404         8.78889
   O        1.20749        17.61167         7.98772
   C        3.48947        19.19145         9.30662
   C        4.32715        20.06533        10.03279
   C        3.73958        21.05652        10.87250
   C        2.33428        21.16103        10.97593
   C        4.58646        21.92138        11.59584
   C        5.94689        21.81304        11.49697
   C        6.52392        20.83685        10.67036
   C        5.73155        19.98205         9.95337
   H        3.60772        -0.54707        -4.62605
   H        2.82678         4.13004        -6.17344
   H        4.62021         3.89546        -7.78312
   H        6.39877         2.54762        -8.82480
   H        6.79858         0.23288        -8.08472
   H        5.42430        -0.75387        -6.29465
   H        0.15211         1.43829        -1.19754
   H       -3.63709         7.47731        -0.49827
   H       -6.89248         9.34193        -0.57579
   H       -5.60740         8.21106        -0.10718
   H       -4.17602         9.37737        -1.67121
   H       -5.43546        10.31490        -2.14045
   H       -5.56726        12.32546         0.80856
   H       -6.59341        11.33782         1.86406
   H       -7.05291        11.76081        -0.98976
   H       -8.00179        12.19813         0.27129
   H       -4.74718        12.69496         2.84085
   H       -3.73080        14.22547         4.60937
   H       -1.08870        13.13114         5.69630
   H       -2.31831        18.87337         9.41505
   H        3.91623        18.43297         8.66710
   H        1.92082        21.91867        11.62262
   H        4.13818        22.67098        12.23109
   H        6.58688        22.47892        12.05604
   H        7.59924        20.76561        10.60518
   H        6.16971        19.22846         9.31560
*
