# ORCA input file
# SCF done       -120.242617705635          0.000719429781
! CAM-B3LYP def2-SVP def2/J RIJCOSX Grid4 TightSCF
%maxcore 5000
%tddft
    Mode sTDDFT
    Ethresh 5.0
    maxcore 5000
end

%pal
  nprocs 6
  end
* xyz 0 1
   C       10.23040        10.47956        -4.92044
   O       10.73648        11.50402        -5.61652
   C       10.44254        12.63118        -4.94316
   C        9.74360        12.34779        -3.81561
   C        9.59766        10.92718        -3.78416
   C        8.91314        10.16245        -2.77774
   C        8.93565         8.82075        -2.69977
   C        8.18000         8.07421        -1.74022
   C        8.18827         6.73133        -1.69278
   C        7.36104         5.93502        -0.80594
   C        7.26886         6.13881         0.54237
   S        8.12979         7.28816         1.55004
   S        6.19508         5.01903         1.33038
   C        5.84582         4.27266        -0.19238
   O        4.97721         3.24895        -0.30252
   C        6.53097         4.83809        -1.24305
   C        6.30773         4.39812        -2.59482
   S        5.15014         3.11443        -2.88027
   C        5.28684         3.18182        -4.60973
   C        6.21969         4.14235        -4.95446
   C        6.78115         4.81363        -3.81830
   O        7.66868         5.75258        -4.23158
   C        7.65900         5.69832        -5.58957
   N        8.52774         6.56196        -6.28780
   O        8.45347         6.54947        -7.50226
   O        9.29239         7.25078        -5.64021
   C        6.80174         4.75789        -6.09194
   C        4.54104         2.28226        -5.44942
   C        5.08798         1.59391        -6.50106
   S        6.73891         1.69938        -7.08381
   S        3.95383         0.49677        -7.23357
   C        2.73122         0.95132        -6.08281
   O        1.50008         0.41436        -6.09720
   C        3.16808         1.91411        -5.21483
   C        2.31817         2.52311        -4.21789
   S        1.15282         1.58159        -3.35935
   C        0.64461         2.97191        -2.44506
   C       -0.39447         2.92711        -1.41024
   O       -0.67318         3.88530        -0.73937
   O       -1.02638         1.75128        -1.23686
   C        1.34784         4.08971        -2.81858
   C        2.28862         3.83767        -3.82257
   H       10.34827         9.49365        -5.32445
   H       10.78011        13.55735        -5.36457
   H        9.37733        13.04348        -3.08847
   H        8.35010        10.73618        -2.05146
   H        9.50924         8.25200        -3.41625
   H        7.52815         8.63653        -1.08172
   H        8.81511         6.18106        -2.37740
   H        8.94838         7.68470         0.57340
   H        4.54363         3.06505         0.53970
   H        6.63749         4.54959        -7.12849
   H        6.68368         0.59001        -7.82156
   H        1.38491        -0.18943        -6.84008
   H       -0.71939         1.06638        -1.84613
   H        1.17088         5.05153        -2.37331
   H        2.91628         4.59272        -4.26025
*
