# ORCA input file
# SCF done       -141.837388841919          0.000715013715
! CAM-B3LYP def2-SVP def2/J RIJCOSX Grid4 TightSCF
%maxcore 5000
%tddft
    Mode sTDDFT
    Ethresh 5.0
    maxcore 5000
end

%pal
  nprocs 6
  end
* xyz 0 1
   C        1.83013         9.08232       -10.42690
   O        0.79475         8.40233       -10.92682
   C       -0.12562         8.29732        -9.94481
   C        0.30454         8.90243        -8.81208
   C        1.60222         9.43054        -9.11093
   C        2.43448        10.15044        -8.19951
   C        3.66056        10.65573        -8.49935
   C        4.50233        11.36616        -7.60864
   C        4.20707        11.64886        -6.30091
   C        5.03431        12.34150        -5.41498
   C        4.65850        12.57996        -4.10532
   C        5.35495        13.24537        -3.07714
   C        4.67926        13.29613        -1.88421
   C        3.42220        12.67337        -1.92649
   S        3.10935        12.01965        -3.50852
   C        2.44251        12.50937        -0.94652
   C        2.39076        12.90260         0.39695
   C        1.22508        12.53805         1.02446
   C        0.31521        11.84727         0.20032
   S        0.98522        11.67006        -1.39932
   C       -0.93456        11.37329         0.57339
   C       -1.86231        10.70602        -0.21490
   S       -3.41278        10.22318         0.49747
   C       -4.04697         9.51723        -0.98585
   C       -3.05669         9.65003        -1.99089
   C       -1.87793        10.29544        -1.55387
   O       -0.98852        10.37501        -2.55861
   C       -1.57952         9.78964        -3.63314
   N       -0.86187         9.73004        -4.83154
   O       -1.41652         9.19020        -5.78240
   O        0.25941        10.20833        -4.87135
   C       -2.84820         9.32806        -3.34264
   C       -5.29279         8.95304        -1.12181
   C       -6.26461         8.79882        -0.13637
   C       -7.53945         8.24333        -0.31568
   C       -8.29830         8.19793         0.82724
   C       -7.64318         8.71155         1.95485
   S       -6.04195         9.27059         1.52984
   C       -8.11546         8.78817         3.26288
   C       -9.37265         8.40300         3.75538
   C       -9.51994         8.59008         5.10184
   C       -8.38175         9.12898         5.74440
   S       -7.11869         9.40316         4.56000
   C       -8.28563         9.38144         7.09469
   C       -7.18783         9.89002         7.80639
   S       -7.33744        10.07044         9.53850
   C       -5.71198        10.68126         9.66868
   C       -5.08993        11.07284        10.93005
   O       -3.96267        11.49430        10.98994
   O       -5.83864        10.94098        12.04594
   C       -5.11219        10.73501         8.42683
   C       -5.92529        10.29765         7.38963
   H        2.66086         9.25711       -11.08167
   H       -1.03079         7.77393       -10.17989
   H       -0.21801         8.97572        -7.88007
   H        2.01765        10.27785        -7.21060
   H        4.04191        10.51037        -9.50162
   H        5.45266        11.70551        -8.00222
   H        3.25939        11.31366        -5.90087
   H        5.99769        12.70391        -5.74840
   H        6.33146        13.66817        -3.23682
   H        5.05779        13.76302        -0.99218
   H        3.19340        13.43590         0.87433
   H        1.00131        12.75151         2.05488
   H       -1.22910        11.54921         1.59976
   H       -3.50314         8.83294        -4.02931
   H       -5.54795         8.58678        -2.10796
   H       -7.87209         7.89014        -1.27586
   H       -9.29687         7.80282         0.87177
   H      -10.13784         8.00026         3.11644
   H      -10.41251         8.35186         5.65283
   H       -9.16539         9.14708         7.68069
   H       -6.72167        10.59265        11.86266
   H       -4.10370        11.08802         8.30717
   H       -5.61471        10.27505         6.36197
*
