# ORCA input file
# SCF done       -161.995186529617          0.000827295801
! CAM-B3LYP def2-SVP def2/J RIJCOSX Grid4 TightSCF
%maxcore 5000
%tddft
    Mode sTDDFT
    Ethresh 5.0
    maxcore 5000
end

%pal
  nprocs 6
  end
* xyz 0 1
   C        7.56866         0.36371         9.97104
   O        7.41664         0.26953        11.30242
   C        8.12873         1.27225        11.84729
   C        8.73719         2.01295        10.88800
   C        8.37622         1.42295         9.63673
   C        8.75399         1.81689         8.30746
   C        9.55206         2.85784         8.00376
   C        9.91450         3.21167         6.66883
   C       10.74048         4.24015         6.38079
   C       11.19130         4.67932         5.09652
   C       10.73261         4.36795         3.81476
   C        9.51579         3.57916         3.48302
   C       11.52155         5.04181         2.82309
   C       12.44092         5.80789         3.50062
   C       12.26825         5.60728         4.93937
   C       13.08432         6.29170         5.79252
   C       14.03098         7.18198         5.23323
   C       14.12919         7.30654         3.88030
   O       13.38941         6.62948         3.01189
   C       11.37289         4.95549         1.38083
   C       11.40151         6.01232         0.48498
   C       11.51519         7.45662         0.81773
   C       11.24443         5.52395        -0.85684
   C       11.09236         4.16475        -0.77743
   C       11.20143         3.75942         0.62885
   C       11.19931         2.42103         0.90934
   C       11.01948         1.51871        -0.16116
   C       10.88570         1.98648        -1.43580
   O       10.93480         3.26976        -1.76446
   C       11.25373         6.33504        -2.07307
   C       12.35955         6.97490        -2.51832
   O       12.36394         7.76059        -3.66845
   C       11.18119         7.78303        -4.33975
   C       10.02612         7.07876        -3.88057
   C        8.95603         7.23338        -4.69741
   S        9.33478         8.24230        -6.04559
   C       10.95803         8.45463        -5.49503
   O       10.03463         6.34828        -2.73132
   C       13.63939         6.83028        -1.88103
   C       14.78809         7.32037        -2.38190
   C       16.10241         7.10383        -1.82075
   C       16.30713         6.74046        -0.51198
   C       17.61139         6.48025        -0.03768
   C       18.07548         6.09880         1.21067
   C       17.25512         6.00330         2.45702
   C       17.25077         4.60084         3.10642
   N       18.37720         4.36953         4.00096
   C       17.67570         7.09618         3.45286
   N       17.66110         8.39105         2.79712
   C       19.49876         5.90990         1.08787
   C       20.41689         5.47701         1.97174
   C       21.85172         5.32498         1.59391
   C       22.17286         5.71408         0.18871
   C       21.24011         6.13540        -0.68403
   C       19.88342         6.23500        -0.29118
   C       18.73108         6.57676        -0.96683
   C       18.49446         6.98484        -2.30065
   C       17.22777         7.25484        -2.69990
   C       22.25100         3.90117         1.92535
   C       22.49158         2.96191         1.03173
   H        7.06566        -0.36297         9.36402
   H        8.12208         1.35196        12.91653
   H        9.36188         2.86798        11.04232
   H        8.35015         1.20503         7.51063
   H        9.95621         3.47151         8.79790
   H        9.50985         2.59074         5.88558
   H       11.14717         4.79997         7.21572
   H        8.70241         3.85758         4.15213
   H        9.68837         2.50861         3.59669
   H        9.21301         3.77014         2.45624
   H       13.01981         6.18424         6.86452
   H       14.67362         7.76697         5.86929
   H       14.81970         7.97966         3.39475
   H       11.08892         7.65381         1.79947
   H       10.99654         8.05597         0.07258
   H       12.55934         7.77067         0.82977
   H       11.33845         2.04999         1.91223
   H       10.99043         0.45744         0.01780
   H       10.74040         1.34551        -2.29277
   H        7.97627         6.81858        -4.58658
   H       11.64425         9.05867        -6.05039
   H       13.63456         6.22843        -0.98586
   H       14.74922         7.87007        -3.31299
   H       15.46581         6.64883         0.16037
   H       16.21742         6.20272         2.16576
   H       17.30212         3.85776         2.30648
   H       16.28428         4.46865         3.62384
   H       18.24725         4.88113         4.86770
   H       18.43440         3.38386         4.23266
   H       18.70201         6.91896         3.77987
   H       17.01221         7.04469         4.33786
   H       16.77835         8.55572         2.32665
   H       17.81842         9.13802         3.46328
   H       20.12906         5.16879         2.96745
   H       22.43634         5.97290         2.26792
   H       23.21265         5.63838        -0.09472
   H       21.51417         6.40776        -1.69410
   H       19.32571         7.07876        -2.98474
   H       17.03130         7.56772        -3.71572
   H       22.29326         3.67951         2.98385
   H       22.43897         3.15544        -0.02647
   H       22.75203         1.95870         1.32517
*
