# ORCA input file
# SCF done       -164.765308192775          0.000626494960
! CAM-B3LYP def2-SVP def2/J RIJCOSX Grid4 TightSCF
%maxcore 5000
%tddft
    Mode sTDDFT
    Ethresh 5.0
    maxcore 5000
end

%pal
  nprocs 6
  end
* xyz 0 1
   C       -4.78307        -4.39568        -3.91901
   S       -3.34080        -4.83294        -3.12036
   C       -3.30467        -3.35714        -2.20204
   C       -4.39641        -2.55046        -2.54334
   C       -5.24558        -3.16328        -3.52048
   C       -6.41530        -2.50073        -3.96887
   C       -6.73525        -1.27704        -3.46121
   O       -7.81621        -0.53488        -3.80173
   C       -8.69988        -1.04965        -4.76655
   C       -5.89061        -0.66349        -2.46278
   O       -6.33139         0.54375        -2.03803
   C       -5.57198         1.23433        -1.07649
   C       -4.75945        -1.29021        -2.02016
   C       -2.21820        -3.02528        -1.32868
   C       -1.41601        -3.91246        -0.64707
   O       -0.32440        -3.50021         0.10376
   C       -0.13881        -2.15839         0.19725
   C       -1.00039        -1.23716        -0.46216
   C       -0.66345         0.05719        -0.23951
   S        0.72234         0.17115         0.78022
   C        0.83973        -1.54549         0.90764
   O       -2.03921        -1.65685        -1.23896
   C       -1.63645        -5.31353        -0.57822
   C       -0.81165        -6.17762         0.07030
   C       -1.08032        -7.56320         0.14635
   O       -2.15408        -8.10015        -0.50174
   C       -0.41844        -8.58548         0.80421
   C        0.72148        -8.89549         1.66638
   O        1.58501        -8.19617         2.13233
   N        0.61292       -10.27148         1.86633
   C       -0.46774       -10.88554         1.23029
   O       -0.72376       -12.06196         1.29058
   C       -1.13043        -9.78064         0.54162
   C       -2.19909        -9.44662        -0.27751
   C       -3.20496       -10.24943        -0.84979
   C       -4.15490        -9.74990        -1.69962
   C       -5.19519       -10.44784        -2.33018
   C       -5.56499       -11.77010        -2.20956
   C       -6.64080       -12.36817        -2.91453
   C       -6.84425       -13.68452        -2.63098
   C       -5.94108       -14.20470        -1.67880
   S       -4.81942       -12.96236        -1.16667
   C       -5.88102       -15.48545        -1.16439
   C       -6.70132       -16.59341        -1.47824
   C       -6.38977       -17.72140        -0.78514
   C       -5.30479       -17.56983         0.11833
   S       -4.69217       -15.92778         0.04312
   C       -4.80018       -18.54248         0.93878
   C       -3.73280       -18.41912         1.84594
   S       -2.79159       -16.96030         2.11804
   C       -1.78439       -17.68257         3.30402
   C       -2.13354       -18.99834         3.50656
   C       -3.22787       -19.40061         2.68323
   O       -3.54939       -20.69206         2.90297
   C       -2.67457       -21.11911         3.85474
   N       -2.78156       -22.46068         4.28961
   O       -1.98107       -22.82248         5.13197
   O       -3.65119       -23.15028         3.80237
   C       -1.79459       -20.15279         4.26365
   H       -5.22000        -5.06677        -4.63107
   H       -7.02733        -2.99123        -4.70769
   H       -9.47491        -0.29516        -4.88811
   H       -9.15526        -1.98786        -4.43314
   H       -8.19702        -1.21180        -5.72544
   H       -5.51280         0.67743        -0.13584
   H       -6.09553         2.17363        -0.90791
   H       -4.55996         1.44104        -1.43871
   H       -4.13098        -0.83565        -1.27568
   H       -1.13694         0.93946        -0.61610
   H        1.61489        -1.99803         1.48920
   H       -2.52938        -5.70485        -1.03570
   H        0.08870        -5.83914         0.55801
   H        1.27076       -10.78779         2.43218
   H       -3.15734       -11.29294        -0.58351
   H       -4.09398        -8.69300        -1.92680
   H       -5.80840        -9.86926        -3.01039
   H       -7.23214       -11.80144        -3.61237
   H       -7.61584       -14.28766        -3.07440
   H       -7.49328       -16.52680        -2.20233
   H       -6.90127       -18.66203        -0.88730
   H       -5.26167       -19.52067         0.90235
   H       -1.01189       -17.10746         3.77025
   H       -1.02655       -20.27207         4.99926
*
