# ORCA input file
# SCF done       -159.664360778474          0.000534985686
! CAM-B3LYP def2-SVP def2/J RIJCOSX Grid4 TightSCF
%maxcore 5000
%tddft
    Mode sTDDFT
    Ethresh 5.0
    maxcore 5000
end

%pal
  nprocs 6
  end
* xyz 0 1
   C      -10.89936       -16.46835        -1.18706
   S      -11.57673       -18.06156        -1.15661
   C      -10.06273       -18.73750        -1.65921
   O       -9.89464       -20.06010        -1.84381
   C       -9.08615       -17.77555        -1.84015
   C       -9.60432       -16.47250        -1.55824
   C       -7.76000       -18.10305        -2.25517
   C       -6.75433       -17.21176        -2.45932
   C       -5.46506       -17.58596        -2.87564
   C       -4.43398       -16.70804        -3.10099
   C       -3.12403       -17.02228        -3.53131
   C       -2.30841       -15.93987        -3.68504
   C       -2.92618       -14.70946        -3.38270
   S       -4.58324       -14.96662        -2.89100
   C       -2.36829       -13.44174        -3.44979
   C       -1.06542       -13.09216        -3.85147
   C       -0.82249       -11.74806        -3.82385
   C       -1.91802       -10.97062        -3.39528
   S       -3.27953       -12.00744        -3.02485
   C       -1.93892        -9.59554        -3.28023
   C       -2.99357        -8.80292        -2.84566
   S       -4.56747        -9.37560        -2.31151
   C       -5.20077        -7.75966        -1.94553
   C       -4.19394        -6.80918        -2.24903
   C       -3.00794        -7.41317        -2.73553
   O       -2.06503        -6.49739        -3.01027
   C       -2.63109        -5.29734        -2.70192
   N       -1.85745        -4.15126        -2.89556
   O       -2.36979        -3.07709        -2.59446
   O       -0.73412        -4.27706        -3.34932
   C       -3.92395        -5.42712        -2.23511
   C       -6.48446        -7.72213        -1.44419
   C       -7.31526        -6.67911        -1.04915
   C       -8.60410        -6.88264        -0.52439
   C       -9.27010        -5.73296        -0.19033
   C       -8.53922        -4.56290        -0.43984
   S       -6.97345        -4.96847        -1.11236
   C       -8.92530        -3.24636        -0.21324
   C      -10.14412        -2.80256         0.33387
   C      -10.22304        -1.44541         0.42239
   C       -9.07722        -0.75001        -0.04962
   S       -7.89633        -1.89366        -0.63859
   C       -8.97019         0.61730         0.02188
   C       -7.93193         1.51972        -0.31734
   C       -8.09519         2.86901         0.02108
   C       -7.13465         3.82874        -0.23586
   C       -5.92872         3.51485        -0.84861
   C       -5.72458         2.15711        -1.22703
   C       -6.71895         1.17215        -0.98713
   N       -6.51853        -0.07688        -1.42476
   C       -5.40422        -0.40197        -2.04080
   C       -5.30491        -1.80385        -2.55333
   C       -6.26014        -2.02597        -3.72758
   C       -4.37415         0.56741        -2.19698
   C       -3.04334         0.27005        -2.81595
   C       -3.12364         0.30518        -4.34399
   N       -4.56377         1.80325        -1.80663
   C       -4.87831         4.47208        -1.12224
   C       -4.90349         5.77547        -0.85166
   H      -11.52405       -15.63911        -0.92319
   H      -10.70996       -20.54024        -1.66036
   H       -9.01505       -15.57781        -1.63516
   H       -7.57319       -19.15658        -2.41441
   H       -6.92659       -16.15511        -2.30511
   H       -5.26486       -18.63733        -3.03676
   H       -2.82594       -18.03933        -3.71627
   H       -1.28385       -15.99663        -4.00619
   H       -0.34300       -13.82917        -4.15253
   H        0.11289       -11.29331        -4.09842
   H       -1.03787        -9.06184        -3.55388
   H       -4.55383        -4.61715        -1.93553
   H       -6.93757        -8.70105        -1.33017
   H       -9.00931        -7.87165        -0.40149
   H      -10.26172        -5.71107         0.22412
   H      -10.92217        -3.47416         0.65189
   H      -11.07024        -0.91431         0.82114
   H       -9.84204         1.09892         0.45458
   H       -9.01001         3.16667         0.51464
   H       -7.33108         4.84806         0.05911
   H       -5.59186        -2.47437        -1.74123
   H       -4.28469        -2.03359        -2.84868
   H       -7.28204        -1.81356        -3.42441
   H       -6.20236        -3.05816        -4.06377
   H       -6.00599        -1.37415        -4.56100
   H       -2.68015        -0.70551        -2.49225
   H       -2.34520         1.03853        -2.48046
   H       -3.79407        -0.46452        -4.71580
   H       -2.13737         0.13289        -4.76654
   H       -3.48408         1.27461        -4.68143
   H       -4.00864         4.03655        -1.59465
   H       -5.74250         6.26252        -0.38369
   H       -4.06877         6.40964        -1.09564
*
