# ORCA input file
# SCF done       -191.552017978232          0.000623044492
! CAM-B3LYP def2-SVP def2/J RIJCOSX Grid4 TightSCF
%maxcore 5000
%tddft
    Mode sTDDFT
    Ethresh 5.0
    maxcore 5000
end

%pal
  nprocs 6
  end
* xyz 0 1
   C        2.59987        -4.26882         3.10241
   C        3.34367        -4.09521         1.97519
   C        2.53664        -4.10777         0.78828
   C        1.21743        -4.27591         1.03024
   S        0.92569        -4.43413         2.72820
   C        3.40191        -3.92690        -0.39066
   O        3.05801        -3.73299        -1.53360
   C        4.77914        -3.89279         0.16915
   C        4.73747        -3.96842         1.58142
   C        5.85561        -4.02070         2.42969
   N        5.81298        -3.73716         3.79501
   O        6.78581        -4.03558         4.48666
   O        4.81344        -3.21786         4.27481
   N        7.14864        -4.31195         1.93537
   O        8.09235        -3.65714         2.34907
   O        7.27742        -5.22238         1.12515
   C        5.93228        -3.71473        -0.61290
   C        6.10808        -4.25227        -1.87647
   C        7.33220        -4.12557        -2.58253
   O        7.64772        -4.94831        -3.62268
   C        6.65661        -5.76910        -4.07486
   C        5.38747        -5.82008        -3.43167
   C        4.52559        -6.67039        -4.04428
   S        5.25928        -7.42180        -5.41079
   C        6.73925        -6.58323        -5.15901
   O        5.12763        -5.10645        -2.31040
   C        8.39135        -3.28846        -2.21353
   C        8.31049        -2.09642        -1.52855
   C        9.39431        -1.42607        -0.92248
   C       10.42616        -2.06117        -0.22712
   O       11.40590        -1.37583         0.40196
   C       11.24380        -0.02569         0.48064
   C       10.14967         0.62849        -0.15731
   C       10.14175         1.96629         0.06052
   S       11.47222         2.44225         1.04955
   C       12.04460         0.82475         1.17085
   O        9.25247        -0.06006        -0.91301
   C       10.38600        -3.45439         0.08060
   C       10.85335        -3.94447         1.25632
   C       10.46908        -5.26183         1.66700
   C       10.08216        -5.55071         2.95569
   O        9.40660        -6.70119         3.27276
   C        9.03836        -7.48795         2.22101
   C        9.46252        -7.19877         0.89335
   C        8.99436        -8.08763        -0.01559
   S        8.02492        -9.29338         0.74165
   C        8.25409        -8.59088         2.29688
   O       10.25249        -6.12247         0.61978
   C       10.10362        -4.63529         4.06565
   C       11.11609        -3.83489         4.46586
   C       11.02034        -3.01046         5.62549
   C        9.93185        -2.31967         6.05196
   C        8.69063        -1.93452         5.40860
   C        8.46921        -1.50417         4.12415
   N        7.17689        -0.93383         3.76247
   O        6.77790        -0.02266         4.45088
   O        6.60290        -1.39193         2.80599
   N        9.41936        -1.40843         3.09622
   O       10.58298        -1.68458         3.33979
   O        9.05755        -0.97147         2.01311
   C        7.71200        -1.81944         6.47896
   C        6.35935        -1.74294         6.62282
   S        5.92324        -1.62652         8.28043
   C        7.56506        -1.67821         8.80366
   C        8.39936        -1.79516         7.73951
   C        9.83522        -1.97720         7.51478
   O       10.74849        -1.93413         8.29986
   H        2.90282        -4.27389         4.12920
   H        0.40215        -4.32898         0.33727
   H        6.77241        -3.18683        -0.18616
   H        3.51546        -6.89054        -3.77109
   H        7.57365        -6.73021        -5.81232
   H        9.35644        -3.61129        -2.58294
   H        7.37871        -1.54547        -1.52838
   H        9.43788         2.68976        -0.29341
   H       12.91521         0.58863         1.74592
   H        9.79027        -4.09810        -0.54202
   H       11.34753        -3.29665         1.95917
   H        9.15971        -8.10319        -1.07226
   H        7.80363        -9.02263         3.16583
   H        9.20828        -4.68825         4.67532
   H       12.09010        -3.90349         4.00225
   H       11.88263        -2.97983         6.28374
   H        5.57527        -1.79560         5.89175
   H        7.80563        -1.62565         9.84643
*
