# ORCA input file
# SCF done       -161.875155506584          0.000837215591
! CAM-B3LYP def2-SVP def2/J RIJCOSX Grid4 TightSCF
%maxcore 5000
%tddft
    Mode sTDDFT
    Ethresh 5.0
    maxcore 5000
end

%pal
  nprocs 6
  end
* xyz 0 1
   C        8.64123         0.35486         5.21921
   C        8.17368        -0.62797         4.40048
   C        7.75549        -0.11819         3.12514
   C        7.90107         1.22373         3.00479
   S        8.56441         1.89382         4.45037
   C        7.28211        -1.22369         2.28465
   O        6.86959        -1.15572         1.14247
   C        7.47485        -2.43101         3.10439
   C        7.89436        -2.05424         4.43411
   C        7.87766        -2.88012         5.53355
   N        8.46965        -2.56227         6.78791
   O        8.01608        -3.10051         7.77592
   O        9.38864        -1.76313         6.79303
   N        7.15921        -4.13897         5.52956
   O        6.04481        -4.13280         5.05171
   O        7.72096        -5.10216         5.99442
   C        7.46866        -3.72461         2.61707
   C        7.04142        -4.21745         1.38818
   S        6.19968        -3.30530         0.13288
   C        6.05637        -4.71425        -0.81300
   C        6.65362        -5.84490        -0.20771
   C        7.19244        -5.57189         1.02219
   C        6.49863        -6.98702        -1.12739
   O        6.86829        -8.12486        -0.97591
   C        5.76404        -6.40302        -2.31650
   C        5.52932        -5.06077        -2.07513
   C        5.39971        -7.11435        -3.47072
   C        5.68285        -8.43443        -3.69220
   C        5.32860        -9.12706        -4.85603
   S        4.43819        -8.40370        -6.19840
   C        4.43923        -9.86184        -7.16249
   C        5.10994       -10.87334        -6.46127
   C        5.58969       -10.44825        -5.19518
   O        6.22742       -11.44797        -4.56501
   C        6.16151       -12.51040        -5.41307
   N        6.76256       -13.72689        -5.01573
   O        6.67627       -14.64969        -5.80668
   O        7.31348       -13.76836        -3.93794
   C        5.49666       -12.22786        -6.58033
   C        3.83992        -9.91154        -8.42401
   S        3.86357       -11.39733        -9.37763
   C        2.99491       -10.62804       -10.63289
   C        2.70246        -9.28617       -10.32635
   C        3.17424        -8.88250        -9.09361
   C        1.96052        -8.73461       -11.47301
   O        1.54111        -7.61671       -11.64562
   C        1.84861        -9.89247       -12.44345
   C        2.48935       -10.98946       -11.90033
   C        1.17686        -9.71199       -13.66255
   C        0.98544       -10.68112       -14.60907
   C        0.28984       -10.52465       -15.82311
   S       -0.32236       -11.97662       -16.59995
   C       -1.23713       -11.05275       -17.71227
   C       -1.06023        -9.71678       -17.55286
   C       -0.15850        -9.38473       -16.50805
   N        0.19467        -8.09171       -16.24165
   C        1.56675        -7.66763       -16.03081
   C        2.19401        -7.15671       -17.32637
   H        9.05752         0.27860         6.20356
   H        7.65984         1.85688         2.17474
   H        7.90100        -4.49020         3.25233
   H        7.67805        -6.28898         1.65983
   H        5.02439        -4.38605        -2.74232
   H        4.86608        -6.56266        -4.23783
   H        6.21807        -9.00385        -2.94452
   H        5.32725       -12.91173        -7.38593
   H        3.05783        -7.90162        -8.66912
   H        2.59187       -11.96015       -12.34800
   H        0.75762        -8.72715       -13.81084
   H        1.31530       -11.68869       -14.39113
   H       -1.84393       -11.55253       -18.44133
   H       -1.53886        -8.97604       -18.16954
   H       -0.32788        -7.42102       -16.79193
   H        2.14351        -8.51086       -15.65295
   H        1.57227        -6.87239       -15.27899
   H        2.18914        -7.93710       -18.08488
   H        3.22204        -6.85667       -17.14495
   H        1.64764        -6.29603       -17.70729
*
