# ORCA input file
# SCF done       -188.295322238085          0.000497679001
! CAM-B3LYP def2-SVP def2/J RIJCOSX Grid4 TightSCF
%maxcore 5000
%tddft
    Mode sTDDFT
    Ethresh 5.0
    maxcore 5000
end

%pal
  nprocs 6
  end
* xyz 0 1
   C      -20.02940        -7.07592         1.50647
   C      -18.92840        -7.79411         1.91720
   C      -19.01156        -8.97669         2.68477
   N      -19.02314        -9.93696         3.31365
   C      -17.57375        -7.51213         1.67445
   N      -16.43192        -7.41498         1.55825
   C      -21.41717        -7.44022         1.79277
   C      -22.26950        -6.46699         1.21634
   C      -23.63782        -6.52454         1.30920
   C      -24.19949        -7.59982         2.00618
   C      -23.34280        -8.56944         2.57765
   C      -21.95696        -8.50876         2.48356
   S      -24.24104        -9.81480         3.39085
   C      -25.73418        -9.02567         2.95800
   C      -25.57130        -7.88812         2.24123
  Br      -27.36753        -9.77765         3.49068
   C      -21.45154        -5.44374         0.53699
   O      -21.87071        -4.47062        -0.05835
   C      -20.04620        -5.85704         0.73931
   C      -18.95565        -5.15762         0.26348
   C      -19.04105        -3.97602        -0.46959
   C      -17.93610        -3.28288        -0.92378
   C      -17.92648        -2.07691        -1.66261
   C      -16.67641        -1.61490        -1.96435
   C      -15.64226        -2.43744        -1.47748
   S      -16.30025        -3.81753        -0.62777
   C      -14.26552        -2.30475        -1.56868
   C      -13.45879        -1.31155        -2.16239
   C      -12.11986        -1.53996        -2.02042
   C      -11.80156        -2.72335        -1.30935
   S      -13.27461        -3.53743        -0.83555
   C      -10.55735        -3.21800        -0.99063
   C      -10.32795        -4.39983        -0.27733
   S      -11.60926        -5.45362         0.29571
   C      -10.53617        -6.60349         1.03327
   C       -9.21370        -6.19080         0.84446
   C       -9.12069        -4.97282         0.11732
   O       -7.83914        -4.60413        -0.04386
   C       -7.10622        -5.57164         0.56910
   N       -5.69486        -5.43777         0.56200
   O       -5.06873        -6.31870         1.11768
   O       -5.22167        -4.46794         0.01319
   C       -7.87496        -6.56071         1.12617
   C      -11.08873        -7.73327         1.67495
   S      -12.81212        -7.95047         1.68168
   C      -12.67383        -9.45042         2.53464
   C      -13.87805       -10.19664         2.93621
   O      -13.81664       -11.26067         3.50662
   O      -15.06158        -9.66405         2.64150
   C      -11.34141        -9.75416         2.80547
   C      -10.45958        -8.76347         2.33996
   C      -10.83892       -10.91627         3.50925
   C      -11.17345       -12.20632         3.34948
   C      -12.07519       -12.86491         2.41337
   C      -12.29728       -12.50670         1.11456
   C      -13.11965       -13.23704         0.22967
   N      -13.77320       -13.79457        -0.53052
   C      -11.68158       -11.40664         0.48408
   N      -11.18074       -10.55089        -0.09508
   C      -12.51690       -14.09232         3.05387
   C      -11.72346       -14.32412         4.20791
   C      -10.77547       -13.21103         4.38476
   O       -9.89859       -13.09041         5.20480
   C      -11.89427       -15.42869         5.00831
   C      -12.89739       -16.33805         4.65962
   C      -13.69511       -16.08690         3.51543
   C      -13.51993       -14.97574         2.70171
   S      -14.88377       -17.33064         3.28102
   C      -14.29822       -18.16383         4.69631
   C      -13.26772       -17.54242         5.31784
  Br      -15.10131       -19.77349         5.22089
   H      -24.25592        -5.76440         0.85774
   H      -21.35354        -9.27571         2.93820
   H      -26.38353        -7.27716         1.89188
   H      -17.96305        -5.54370         0.47113
   H      -20.01844        -3.57357        -0.69372
   H      -18.84184        -1.58861        -1.94576
   H      -16.47700        -0.71444        -2.51730
   H      -13.87839        -0.46198        -2.67046
   H      -11.35024        -0.89367        -2.40371
   H       -9.68278        -2.66374        -1.30239
   H       -7.50228        -7.41546         1.65071
   H      -15.06686        -8.79478         2.19738
   H       -9.39371        -8.82873         2.45339
   H      -10.09941       -10.70859         4.27678
   H      -11.27627       -15.58480         5.87862
   H      -14.15845       -14.81304         1.84927
   H      -12.78809       -17.91576         6.20418
*
