# ORCA input file
# SCF done       -178.605065777809          0.000552873563
! CAM-B3LYP def2-SVP def2/J RIJCOSX Grid4 TightSCF
%maxcore 5000
%tddft
    Mode sTDDFT
    Ethresh 5.0
    maxcore 5000
end

%pal
  nprocs 6
  end
* xyz 0 1
   C       -8.76057        -0.44356        -7.65337
   C       -7.78008         0.50544        -7.56214
   C       -6.59359         0.48969        -8.32740
   N       -5.61146         0.52330        -8.91950
   C       -7.82922         1.64272        -6.72625
   N       -7.80574         2.59543        -6.08661
   C       -8.77316        -1.57511        -8.56705
   C      -10.03237        -2.21831        -8.47945
   C      -10.35566        -3.32246        -9.23138
   C       -9.38934        -3.81693       -10.11220
   C       -8.13022        -3.17140       -10.18993
   C       -7.80404        -2.05584        -9.43025
   S       -7.08444        -3.94913       -11.33821
   C       -8.33425        -5.11141       -11.69651
   C       -9.47702        -4.92952       -10.99195
  Br       -8.01240        -6.45426       -12.96415
   C      -10.88641        -1.51931        -7.50129
   O      -12.03050        -1.79656        -7.22591
   C      -10.02034        -0.45366        -6.91386
   C      -10.25991         0.22672        -5.76998
   C      -11.49612         0.25538        -5.01049
   C      -12.72746         0.28964        -5.54665
   C      -11.33400         0.33990        -3.60575
   C      -11.20048         0.41520        -2.40536
   C      -11.16365         0.50106        -1.01241
   C      -10.30844         1.29087        -0.33054
   C      -10.29838         1.46508         1.09576
   C      -11.40782         1.39073         1.90675
   O      -11.33011         1.44685         3.28463
   C      -10.08205         1.68102         3.78436
   C       -8.94878         1.84690         2.93653
   C       -7.80614         2.09360         3.62461
   S       -8.09603         2.12567         5.32163
   C       -9.77522         1.80314         5.09899
   O       -9.04283         1.73545         1.57852
   C      -12.73141         1.30944         1.39458
   C      -13.82564         0.97266         2.12420
   C      -15.11273         0.87225         1.55102
   S      -15.41248         1.22177        -0.12019
   C      -17.06717         0.68732        -0.01324
   C      -17.36984         0.31705         1.29836
   C      -16.28099         0.42665         2.16999
   S      -16.23581        -0.03191         3.86471
   C      -17.85528        -0.51309         4.36974
   O      -17.97436        -0.98659         5.46598
   C      -19.08519        -0.29400         3.51857
   O      -20.17575        -0.34679         4.01033
   S      -19.02030        -0.05773         1.75968
   C      -17.85408         0.74065        -1.18201
   C      -18.96022         0.03730        -1.55807
   C      -19.58143        -1.17844        -1.09208
   C      -18.96542        -2.20569        -0.42002
   C      -19.60359        -3.41132        -0.06394
   N      -20.07362        -4.40732         0.25845
   C      -17.59669        -2.21367        -0.09516
   N      -16.48007        -2.26110         0.16906
   C      -20.91658        -1.23931        -1.67677
   C      -21.03706        -0.21238        -2.64736
   C      -19.79270         0.57777        -2.67217
   O      -19.50222         1.49249        -3.40760
   C      -22.17157        -0.04122        -3.40246
   C      -23.24078        -0.91611        -3.18083
   C      -23.11631        -1.92692        -2.19716
   C      -21.96514        -2.10618        -1.43907
   S      -24.55815        -2.88713        -2.08137
   C      -25.29738        -1.93697        -3.34281
   C      -24.50749        -0.94787        -3.82493
  Br      -27.04024        -2.33931        -3.90364
   H      -11.32506        -3.78731        -9.14275
   H       -6.83076        -1.60317        -9.52044
   H      -10.34665        -5.55362       -11.08756
   H       -9.44435         0.77428        -5.31154
   H      -12.88548         0.30117        -6.60856
   H      -13.59819         0.34246        -4.91552
   H      -11.87929        -0.12691        -0.49758
   H       -9.51177         1.80051        -0.85580
   H       -6.82391         2.25576         3.23285
   H      -10.43268         1.72355         5.93907
   H      -12.86039         1.55705         0.35106
   H      -13.72843         0.71014         3.16755
   H      -17.54533         1.49422        -1.90249
   H      -22.23352         0.74174        -4.14182
   H      -21.91707        -2.88527        -0.69642
   H      -24.80430        -0.26807        -4.60255
*
