# ORCA input file
# SCF done       -122.686049704173          0.000163325746
! CAM-B3LYP def2-SVP def2/J RIJCOSX Grid4 TightSCF
%maxcore 5000
%tddft
    Mode sTDDFT
    Ethresh 5.0
    maxcore 5000
end

%pal
  nprocs 6
  end
* xyz 0 1
   C        4.97923         1.17056        -6.22236
   C        5.04701         1.01118        -4.89232
   C        5.59186         1.91740        -3.92484
   C        5.51269         1.48106        -2.64601
   C        4.90374         0.20667        -2.49923
   S        4.43524        -0.42833        -4.06093
   C        4.67318        -0.48034        -1.32487
   C        4.98013        -0.07821        -0.00739
   C        4.59776        -0.97795         0.94371
   C        3.97110        -2.13493         0.43214
   S        3.89371        -2.05240        -1.31351
   C        3.46474        -3.17570         1.18773
   C        2.83097        -4.32054         0.72993
   C        2.26486        -5.34907         1.52278
   C        1.65089        -6.38846         0.76067
   N        1.07952        -7.45260         1.33866
   C        1.08597        -7.52579         2.64524
   C        1.65156        -6.55688         3.48482
   C        2.24688        -5.45560         2.91843
   C        1.75319        -6.18577        -0.63863
   S        2.60687        -4.69244        -0.95647
   C        1.36031        -6.94936        -1.74253
   C        0.48636        -8.04804        -1.89574
   C        0.37533        -8.50096        -3.24957
   N       -0.40187        -9.53570        -3.59533
   C       -1.09631       -10.13179        -2.66132
   C       -1.08244        -9.75004        -1.31299
   C       -0.28515        -8.70251        -0.92336
   C        1.17282        -7.76900        -4.16160
   S        2.01423        -6.50810        -3.30025
   C        1.43616        -7.90827        -5.53178
   C        0.85824        -8.68404        -6.55798
   C        1.50332        -8.51309        -7.82693
   N        1.07972        -9.13283        -8.93937
   C        0.03920        -9.91686        -8.85107
   C       -0.66479       -10.15451        -7.66024
   C       -0.25583        -9.53765        -6.50518
   C        2.58176        -7.60523        -7.79723
   S        2.74639        -6.96168        -6.19152
   C        3.47097        -7.15416        -8.79562
   C        3.80883        -7.65221       -10.06338
   C        4.82783        -6.86127       -10.70634
   N        5.33181        -7.14503       -11.92702
   C        4.87166        -8.20360       -12.52553
   C        3.89117        -9.06227       -11.98224
   C        3.35284        -8.79097       -10.75274
   C        5.24250        -5.79174        -9.93879
   S        4.42623        -5.73317        -8.44741
   H        5.36112         2.06177        -6.68820
   H        4.54601         0.42191        -6.85964
   H        6.01782         2.85671        -4.22973
   H        5.87066         2.03249        -1.79468
   H        5.46547         0.85677         0.20692
   H        4.74461        -0.84156         2.00100
   H        3.56477        -3.07273         2.26041
   H        0.61429        -8.40622         3.06248
   H        1.61712        -6.68401         4.55517
   H        2.69653        -4.68986         3.53331
   H       -1.70613       -10.96193        -2.99522
   H       -1.69119       -10.27975        -0.59734
   H       -0.21907        -8.38325         0.10402
   H       -0.26599       -10.38954        -9.77635
   H       -1.51849       -10.81384        -7.66395
   H       -0.75275        -9.69395        -5.56139
   H        5.29220        -8.41058       -13.50188
   H        3.57298        -9.92599       -12.54529
   H        2.58607        -9.40698       -10.31173
   H        5.98178        -5.05910       -10.18979
*
