# ORCA input file
# SCF done       -218.504857582736          0.000711753933
! CAM-B3LYP def2-SVP def2/J RIJCOSX Grid4 TightSCF
%maxcore 5000
%tddft
    Mode sTDDFT
    Ethresh 5.0
    maxcore 5000
end

%pal
  nprocs 6
  end
* xyz 0 1
   C       -5.30573        -0.82687         5.18132
   C       -5.21907         0.24636         6.05207
   C       -5.52368         0.03720         7.39907
   C       -5.43838         1.12278         8.30639
   N       -5.36445         2.00312         9.03420
   C       -5.91268        -1.22987         7.87404
   C       -6.21387        -1.40867         9.24605
   N       -6.46142        -1.57204        10.35190
   C       -5.99888        -2.30977         6.99416
   C       -5.69355        -2.09001         5.66793
   C       -5.70185        -3.05907         4.55442
   O       -5.99818        -4.23733         4.63199
   C       -5.27909        -2.31644         3.36415
   C       -5.05721        -0.93244         3.74121
   C       -4.70558         0.11063         2.92713
   C       -4.51863         1.43726         3.37520
   N       -4.35059         2.53100         3.67740
   C       -4.49127         0.03163         1.53336
   N       -4.30805         0.05151         0.40046
   C       -5.09588        -2.85413         2.11321
   C       -5.29153        -4.16263         1.65065
   C       -5.02608        -4.51810         0.31822
   C       -5.29989        -5.84454         0.06118
   C       -5.78914        -6.52297         1.20882
   S       -5.89318        -5.53121         2.58762
   C       -6.05666        -7.86138         0.85142
   C       -5.73884        -8.03827        -0.51515
   C       -5.25129        -6.77921        -1.05356
   C       -4.84205        -6.53232        -2.33029
   C       -4.85033        -7.53393        -3.32503
   N       -4.85910        -8.34684        -4.13325
   C       -4.38335        -5.26166        -2.73993
   N       -4.01107        -4.22970        -3.07140
   C       -5.98583        -9.32709        -0.96098
   C       -6.49507       -10.13707         0.05075
   S       -6.65994        -9.28643         1.57815
   C       -6.88887       -11.49385        -0.06607
   C       -7.43578       -12.18952         1.03752
   C       -7.90851       -13.54351         0.93571
   N       -8.42673       -14.14362         2.01211
   C       -8.49945       -13.50191         3.15289
   C       -8.02820       -12.15319         3.25440
   N       -7.52016       -11.54883         2.20798
   C       -8.10028       -11.45750         4.48742
   N       -8.16804       -10.91954         5.49567
   C       -9.04277       -14.16536         4.28153
   N       -9.47404       -14.68544         5.20576
   C       -7.85257       -14.27842        -0.27125
   C       -7.26397       -13.60292        -1.36598
   C       -6.79534       -12.23789        -1.26620
   N       -6.29325       -11.81177        -2.42609
   S       -6.39165       -12.97941        -3.51699
   N       -7.07693       -14.09266        -2.59231
   C       -8.38467       -15.58977        -0.34742
   C       -8.38229       -16.43048        -1.45792
   C       -9.02924       -17.62849        -1.20011
   C       -9.53566       -17.70144         0.11719
   S       -9.19086       -16.30297         1.03876
   C      -10.20553       -18.93293         0.26348
   C      -10.11512       -19.65573        -0.94807
   C       -9.36938       -18.85543        -1.90571
   C       -9.05885       -19.17828        -3.19312
   C       -9.43520       -20.41153        -3.76807
   N       -9.73414       -21.41593        -4.23204
   C       -8.33338       -18.30310        -4.03040
   N       -7.74534       -17.59551        -4.71396
   C      -10.75940       -20.88414        -0.88959
   C      -11.38777       -21.09025         0.33208
   S      -11.10322       -19.75538         1.45034
   C      -12.11369       -22.24070         0.71137
   C      -13.03264       -22.37784         1.70816
   C      -13.32780       -23.72694         2.26212
   O      -13.00861       -24.79292         1.79581
   C      -14.03956       -23.46774         3.53699
   C      -14.42799       -24.36943         4.50503
   C      -15.06343       -23.87641         5.64643
   C      -15.28770       -22.49379         5.79269
   C      -14.89988       -21.58976         4.80187
   C      -14.27883       -22.08519         3.66900
   C      -13.79933       -21.40981         2.46317
   C      -14.25548       -20.20149         2.00799
   C      -13.99381       -19.71393         0.70988
   N      -13.83208       -19.31145        -0.35255
   C      -15.11217       -19.35615         2.74415
   N      -15.79843       -18.63256         3.31068
   C      -15.91681       -22.01102         6.96756
   N      -16.42093       -21.61247         7.91474
   C      -15.47878       -24.76882         6.66456
   N      -15.80699       -25.50488         7.47777
   H       -4.92430         1.23204         5.72975
   H       -6.29468        -3.28849         7.34027
   H       -4.74016        -2.18294         1.34083
   H       -4.65334        -3.80837        -0.39935
   H       -5.82380        -9.69599        -1.95713
   H       -7.92773       -16.14123        -2.38771
   H      -10.81876       -21.59389        -1.69505
   H      -11.85493       -23.15602         0.18710
   H      -14.24591       -25.42646         4.38406
   H      -15.07997       -20.53586         4.94552
*
