# ORCA input file
# SCF done       -199.360151054833          0.000350461756
! CAM-B3LYP def2-SVP def2/J RIJCOSX Grid4 TightSCF
%maxcore 5000
%tddft
    Mode sTDDFT
    Ethresh 5.0
    maxcore 5000
end

%pal
  nprocs 6
  end
* xyz 0 1
   C       -1.38708        -1.15845         0.30543
   C       -2.20916        -1.24105        -0.78559
   C       -1.68385        -1.11141        -2.07996
   C       -0.34468        -0.90044        -2.26597
   C        0.53040        -0.80785        -1.16481
   C        1.91334        -0.57999        -1.35145
   C        2.73265        -0.49429        -0.25855
   C        2.19683        -0.65440         1.05309
   C        0.86433        -0.86591         1.26227
   C       -0.00355        -0.94296         0.14977
   C        3.28896        -0.57709         2.03650
   O        3.21957        -0.61201         3.24309
   C        4.54274        -0.50883         1.22461
   C        4.16571        -0.24197        -0.14860
   C        4.92778         0.37880        -1.10385
   C        6.24911         0.81580        -0.89100
   N        7.31883         1.20718        -0.74551
   C        4.44398         0.73831        -2.37967
   N        4.09920         1.05521        -3.42703
   C        5.72499        -0.78278         1.83787
   C        6.96400        -1.14872         1.26277
   C        7.22723        -1.64863        -0.00395
   C        8.57679        -1.92270        -0.18936
   C        9.35394        -1.64109         0.94936
   S        8.42057        -1.05474         2.24359
   C       10.70902        -1.94285         0.64863
   C       10.78488        -2.40263        -0.67632
   C        9.44872        -2.40837        -1.24754
   C        9.07619        -2.78336        -2.50420
   C        9.99699        -3.28415        -3.44945
   N       10.73646        -3.71894        -4.20954
   C        7.72894        -2.71747        -2.91974
   N        6.62933        -2.66429        -3.24025
   C       12.08906        -2.71651        -1.06664
   C       12.99080        -2.51761        -0.04254
   S       12.22650        -1.92224         1.42186
   C       14.40731        -2.76092        -0.07400
   C       15.16664        -3.12550         1.02670
   C       14.72749        -3.34753         2.33213
   N       14.38547        -3.55017         3.40964
   S       16.83959        -3.37802         0.63340
   C       16.54768        -2.98169        -1.03166
   C       15.20991        -2.67355        -1.24999
   C       14.71350        -2.24675        -2.49210
   N       14.31384        -1.87226        -3.50060
   C       17.63096        -3.00193        -1.95146
   C       18.93058        -3.37659        -1.64922
   C       19.76768        -3.29481        -2.75732
   C       19.09781        -2.84801        -3.91154
   S       17.44269        -2.53764        -3.63535
   C       20.03005        -2.79081        -4.97859
   C       21.28796        -3.21218        -4.49715
   C       21.16609        -3.52977        -3.08397
   C       22.14892        -3.94168        -2.23443
   C       23.49505        -4.09720        -2.63280
   N       24.59802        -4.20925        -2.92243
   C       21.88434        -4.22080        -0.87602
   N       21.66338        -4.44809         0.22573
   C       22.27470        -3.21556        -5.47526
   C       21.78927        -2.79544        -6.70572
   S       20.07646        -2.37073        -6.62458
   C       22.43925        -2.59018        -7.94383
   C       23.63890        -3.07549        -8.37811
   C       24.27893        -2.69146        -9.62626
   C       23.99079        -1.58215       -10.37795
   C       24.66761        -1.23925       -11.56762
   N       25.17398        -0.91013       -12.54369
   C       23.02047        -0.61015       -10.05493
   N       22.26689         0.23022        -9.84311
   C       25.35697        -3.63568        -9.88649
   C       25.43967        -4.53897        -8.78911
   C       26.37117        -5.53609        -8.74151
   C       27.28173        -5.67777        -9.81201
   C       28.26867        -6.68292        -9.81677
   C       29.13854        -6.80343       -10.86650
   C       29.05976        -5.92378       -11.95659
   C       28.11267        -4.93637       -11.98292
   C       27.20122        -4.78290       -10.91843
   C       26.22465        -3.76085       -10.93943
   C       24.40446        -4.21254        -7.79621
   O       24.19295        -4.80251        -6.75873
   H       -1.78579        -1.25820         1.30438
   H       -3.26822        -1.40740        -0.65716
   H       -2.34632        -1.17911        -2.92978
   H        0.06410        -0.79670        -3.26022
   H        2.29442        -0.49330        -2.35700
   H        0.47650        -0.97561         2.26410
   H        5.68423        -0.78388         2.92322
   H        6.45916        -1.84126        -0.73035
   H       12.36304        -3.08923        -2.03665
   H       19.23396        -3.69385        -0.66724
   H       23.29629        -3.50592        -5.31739
   H       21.87711        -1.97234        -8.63484
   H       26.41375        -6.20521        -7.89501
   H       28.32441        -7.35683        -8.97451
   H       29.89180        -7.57693       -10.86270
   H       29.75423        -6.03217       -12.77609
   H       28.04947        -4.25579       -12.81923
   H       26.18507        -3.10441       -11.79413
*
