# ORCA input file
# SCF done       -204.444265466687          0.000735689432
! CAM-B3LYP def2-SVP def2/J RIJCOSX Grid4 TightSCF
%maxcore 5000
%tddft
    Mode sTDDFT
    Ethresh 5.0
    maxcore 5000
end

%pal
  nprocs 6
  end
* xyz 0 1
   C       11.68407         6.56162        11.74484
   C       10.73542         6.38755        12.71588
   C        9.71781         5.43608        12.55024
   C        9.66189         4.67246        11.41616
   C       10.62045         4.82809        10.39443
   C       10.55815         4.05198         9.21445
   C       11.50146         4.23543         8.23977
   C       12.55072         5.18279         8.42684
   C       12.63049         5.95007         9.55345
   C       11.65626         5.79228        10.56492
   C       13.45268         5.14433         7.26437
   O       14.41885         5.83494         7.03760
   C       12.96028         4.01068         6.42315
   C       11.65912         3.61814         6.92743
   C       10.65002         3.01460         6.22289
   C       10.74588         2.62982         4.87202
   N       10.76431         2.32314         3.76538
   C        9.35646         2.79136         6.74085
   N        8.28908         2.58651         7.10831
   C       13.77540         3.51213         5.45602
   C       13.69151         2.26180         4.79884
   C       13.05022         1.10687         5.21814
   C       13.17715         0.07259         4.29919
   C       13.92982         0.43474         3.16589
   S       14.50089         2.03529         3.25401
   C       13.94330        -0.66747         2.27151
   C       13.20294        -1.71733         2.83885
   C       12.69223        -1.28633         4.12987
   C       11.88978        -1.98157         4.98513
   C       11.46198        -3.29828         4.71305
   N       11.12134        -4.37074         4.49417
   C       11.43908        -1.41379         6.19600
   N       11.08222        -0.93972         7.17706
   C       13.13477        -2.83998         2.01478
   C       13.82322        -2.65994         0.83039
   S       14.56204        -1.06855         0.73203
   C       13.87097        -3.58586        -0.25199
   C       14.62777        -3.55949        -1.40087
   C       14.29085        -4.62270        -2.30254
   C       14.85470        -4.92393        -3.54043
   C       14.38604        -6.02357        -4.24366
   C       13.36015        -6.83407        -3.72764
   C       12.80411        -6.55296        -2.50055
   C       13.27230        -5.45269        -1.79416
   S       12.73372        -4.92264        -0.23337
   C       14.95800        -6.34255        -5.49808
   N       15.42711        -6.60418        -6.51016
   C       15.69933        -2.63231        -1.70030
   C       15.82332        -1.86017        -2.82762
   C       17.04493        -1.17314        -2.86236
   C       17.85220        -1.45164        -1.75186
   S       17.11517        -2.54279        -0.66362
   C       19.07695        -0.74727        -1.89108
   C       19.03767        -0.01949        -3.09902
   C       17.74973        -0.25044        -3.73798
   C       17.28807         0.28347        -4.90386
   C       18.02144         1.20657        -5.68183
   N       18.57721         1.97047        -6.33022
   C       16.01162        -0.04347        -5.41147
   N       14.97520        -0.31392        -5.82016
   C       20.21335         0.67319        -3.35854
   C       21.16236         0.48479        -2.36235
   S       20.55036        -0.56145        -1.07015
   C       22.47746         0.96137        -2.17929
   C       23.30764         1.66967        -3.00195
   C       24.64822         2.09449        -2.62151
   C       25.20327         2.06016        -1.36794
   C       26.51364         2.49443        -1.07331
   N       27.56780         2.82317        -0.75899
   C       24.57033         1.62470        -0.18471
   N       24.13101         1.30428         0.82762
   C       25.30274         2.62907        -3.80928
   C       24.37224         2.60721        -4.88541
   C       24.69316         3.06077        -6.13235
   C       25.99152         3.56503        -6.36660
   C       26.38202         4.04962        -7.63031
   C       27.64762         4.52890        -7.83441
   C       28.57741         4.54442        -6.78383
   C       28.22946         4.08171        -5.54395
   C       26.93418         3.58218        -5.29796
   C       26.57008         3.10754        -4.01698
   C       23.09582         2.03865        -4.42604
   O       22.10125         1.88840        -5.10388
   H       12.47011         7.29228        11.86758
   H       10.76432         6.98161        13.61699
   H        8.97732         5.31166        13.32602
   H        8.87859         3.94111        11.28200
   H        9.77152         3.32043         9.11528
   H       13.42710         6.66934         9.67251
   H       14.62618         4.13738         5.20272
   H       12.54892         1.02667         6.16547
   H       12.61325        -3.74992         2.25218
   H       15.64677        -4.31273        -3.94633
   H       13.01818        -7.68094        -4.30239
   H       12.02159        -7.17043        -2.08918
   H       15.05168        -1.78671        -3.57257
   H       20.40348         1.27746        -4.22769
   H       22.88828         0.68534        -1.21488
   H       23.96335         3.03527        -6.92791
   H       25.66159         4.03464        -8.43498
   H       27.93933         4.89829        -8.80615
   H       29.57172         4.92573        -6.96188
   H       28.94159         4.09310        -4.73182
   H       27.30944         3.13189        -3.23257
*
