# ORCA input file
# SCF done       -201.724909781975          0.000335963824
! CAM-B3LYP def2-SVP def2/J RIJCOSX Grid4 TightSCF
%maxcore 5000
%tddft
    Mode sTDDFT
    Ethresh 5.0
    maxcore 5000
end

%pal
  nprocs 6
  end
* xyz 0 1
   C       -0.20520         2.89523        -2.59681
   C       -0.71725         3.42650        -3.74943
   C        0.13610         3.79247        -4.80116
   C        1.48915         3.62343        -4.68616
   C        2.05084         3.08270        -3.51183
   C        3.44940         2.92047        -3.38216
   C        3.96049         2.39971        -2.22406
   C        3.08517         2.00160        -1.17108
   C        1.73168         2.15360        -1.26705
   C        1.18283         2.70757        -2.44528
   C        3.87725         1.42971        -0.07142
   O        3.49567         1.03224         1.00477
   C        5.28215         1.38055        -0.58267
   C        5.33713         2.16438        -1.80043
   C        6.43390         2.79924        -2.32285
   C        7.72095         2.75029        -1.75458
   N        8.77992         2.76113        -1.31039
   C        6.38303         3.66082        -3.43951
   N        6.39914         4.37177        -4.33978
   C        6.18145         0.60476         0.07880
   C        7.43414         0.11695        -0.36123
   C        7.91190        -0.02539        -1.65589
   C        9.20185        -0.54033        -1.68388
   C        9.71398        -0.80650        -0.39882
   S        8.59713        -0.44389         0.83185
   C       11.04453        -1.27622        -0.53246
   C       11.37470        -1.29852        -1.90580
   C       10.22784        -0.83726        -2.67048
   C       10.12759        -0.67645        -4.02082
   C       11.18360        -0.98622        -4.90434
   N       12.03286        -1.24446        -5.62925
   C        8.94418        -0.18805        -4.61492
   N        7.97500         0.20661        -5.08371
   C       12.68158        -1.71884        -2.13654
   C       13.32816        -2.01636        -0.94884
   S       12.32778        -1.78132         0.46764
   C       14.66703        -2.44839        -0.75261
   N       15.05848        -2.69523         0.48776
   N       16.26281        -3.05760         0.81189
   C       17.23892        -3.20019        -0.07194
   C       16.94883        -2.98225        -1.45313
   C       15.61007        -2.60315        -1.81384
   N       15.58033        -2.47276        -3.12316
   O       16.80876        -2.75039        -3.54865
   N       17.64981        -3.05872        -2.56380
   C       18.53741        -3.55065         0.39482
   C       18.88540        -3.82519         1.70846
   C       20.24254        -4.09916         1.82934
   C       20.92507        -4.02213         0.59580
   S       19.89430        -3.63269        -0.70711
   C       22.29758        -4.28057         0.82529
   C       22.48496        -4.53342         2.20262
   C       21.20075        -4.42215         2.87624
   C       20.94756        -4.56824         4.20709
   C       21.95780        -4.83627         5.15755
   N       22.75677        -5.03092         5.95567
   C       19.64718        -4.44289         4.74395
   N       18.59689        -4.34867         5.19291
   C       23.80654        -4.80042         2.53432
   C       24.64405        -4.74658         1.42732
   S       23.75373        -4.34926        -0.04787
   C       26.04478        -4.86366         1.29828
   C       26.97435        -5.33252         2.18290
   C       28.41138        -5.26050         1.97018
   C       29.06213        -4.47678         1.05242
   C       30.46538        -4.42703         0.91247
   N       31.59748        -4.34356         0.74201
   C       28.44523        -3.58317         0.15169
   N       28.02071        -2.81911        -0.59364
   C       29.05640        -6.09292         2.97687
   C       28.05293        -6.61183         3.84289
   C       28.35665        -7.42068         4.89996
   C       29.70739        -7.75421         5.14424
   C       30.08369        -8.57917         6.22230
   C       31.39878        -8.89077         6.43822
   C       32.39470        -8.39060         5.58603
   C       32.06266        -7.58675         4.52958
   C       30.71822        -7.24514         4.27811
   C       30.37188        -6.41073         3.19069
   C       26.72843        -6.14231         3.40681
   O       25.66568        -6.42057         3.91931
   H       -0.85729         2.61105        -1.78393
   H       -1.78231         3.56712        -3.85712
   H       -0.28437         4.21024        -5.70352
   H        2.15046         3.90701        -5.49153
   H        4.08301         3.20159        -4.20875
   H        1.08699         1.85525        -0.45376
   H        5.85983         0.27632         1.06297
   H        7.32412         0.20399        -2.52592
   H       13.16040        -1.80846        -3.09544
   H       18.15846        -3.81158         2.49957
   H       24.16264        -5.02888         3.52187
   H       26.41595        -4.52625         0.33718
   H       27.57509        -7.79723         5.54296
   H       29.31239        -8.96078         6.87508
   H       31.67884        -9.52408         7.26661
   H       33.42746        -8.64520         5.77119
   H       32.82608        -7.19791         3.87180
   H       31.15975        -6.04745         2.55027
*
