# ORCA input file
# SCF done       -217.089074089812          0.000879633360
! CAM-B3LYP def2-SVP def2/J RIJCOSX Grid4 TightSCF
%maxcore 5000
%tddft
    Mode sTDDFT
    Ethresh 5.0
    maxcore 5000
end

%pal
  nprocs 6
  end
* xyz 0 1
   C       -1.39720        -8.63148        13.57474
   C       -0.82671        -9.70890        14.19239
   F       -0.83648        -9.80241        15.52916
   C       -0.22337       -10.73262        13.43527
   F        0.32851       -11.77807        14.06746
   C       -0.19864       -10.66477        12.07033
   C       -0.77620        -9.56649        11.40457
   C       -1.38765        -8.53112        12.16897
   C       -1.97445        -7.41871        11.52266
   C       -1.95314        -7.34694        10.15475
   C       -1.33988        -8.38521         9.39994
   C       -0.75938        -9.46689         9.99496
   C       -1.43395        -8.06357         7.96156
   O       -0.84700        -8.61587         7.05848
   C       -2.25994        -6.82990         7.88613
   C       -2.47849        -6.34483         9.22948
   C       -3.09412        -5.17245         9.59558
   C       -3.58708        -4.20025         8.70263
   N       -4.00522        -3.36340         8.03510
   C       -3.29175        -4.76597        10.93100
   N       -3.48519        -4.37805        11.99433
   C       -2.63917        -6.21753         6.72124
   C       -2.68468        -6.82486         5.44526
   C       -2.96559        -8.19595         5.26615
   C       -2.95617        -8.81129         3.96165
   N       -3.34665       -10.08562         4.02339
   S       -3.62492       -10.48537         5.54295
   N       -3.33435        -9.05868         6.21505
   C       -2.59321        -8.10774         2.78478
   C       -2.50395        -6.68647         2.93329
   C       -2.31915        -5.74620         1.94411
   S       -2.22694        -4.15946         2.55733
   C       -2.40746        -4.69705         4.16047
   C       -2.55945        -6.06440         4.24339
   C       -2.31165        -8.81658         1.60274
   C       -1.97245       -10.18485         1.52953
   C       -1.80408       -10.67176         0.18616
   N       -1.56626       -11.96583         0.00192
   C       -1.44841       -12.75697         1.04796
   C       -1.16562       -14.18743         0.78498
   O       -1.10363       -14.64395        -0.33925
   C       -0.90660       -14.99407         1.98842
   C       -0.96796       -14.50926         3.23439
   C       -1.35311       -13.12291         3.54865
   O       -1.62791       -12.76090         4.67607
   C       -1.49236       -12.23919         2.37106
   N       -1.73601       -10.96426         2.57500
   C       -1.93574        -9.66812        -0.80641
   S       -2.30206        -8.15262        -0.00153
   C       -1.83487        -9.67043        -2.21452
   C       -1.97770        -8.42254        -2.88266
   C       -1.82912        -8.23732        -4.30369
   N       -2.02623        -6.96534        -4.65963
   S       -2.34035        -6.08548        -3.35883
   N       -2.25958        -7.27228        -2.27422
   C       -1.56324        -9.31386        -5.17273
   C       -1.48478       -10.58671        -4.53836
   C       -1.23707       -11.77590        -5.18988
   S       -1.16095       -13.09665        -4.12350
   C       -1.43987       -12.10807        -2.77365
   C       -1.59584       -10.77736        -3.09689
   C       -1.46928        -9.17722        -6.57632
   C       -1.14182        -8.08973        -7.33893
   C       -1.53811        -8.08401        -8.77259
   O       -1.97240        -9.01893        -9.40697
   C       -1.32985        -6.69527        -9.22983
   C       -1.63380        -6.13278       -10.43518
   C       -1.35528        -4.76267       -10.64344
   C       -0.76913        -4.00156        -9.59099
   C       -0.49569        -2.63579        -9.80433
   C       -0.78757        -2.05381       -11.00611
   C       -1.36695        -2.80748       -12.04590
   C       -1.64562        -4.13404       -11.86957
   F       -1.64424        -2.21067       -13.21357
   F       -0.52440        -0.75530       -11.20671
   C       -0.46142        -4.61417        -8.35389
   C       -0.73287        -5.94408        -8.17724
   C       -0.49728        -6.83645        -7.04444
   C        0.35756        -6.57878        -6.00111
   C        0.76632        -7.54680        -5.06516
   N        1.14350        -8.30593        -4.29003
   C        0.96866        -5.33157        -5.77088
   N        1.46815        -4.33099        -5.50986
   H       -1.85526        -7.85650        14.16925
   H        0.26736       -11.45661        11.50509
   H       -2.42645        -6.65164        12.13024
   H       -0.29786       -10.23861         9.39805
   H       -2.94620        -5.18147         6.76194
   H       -2.24432        -5.89416         0.88713
   H       -2.41327        -3.98096         4.95716
   H       -0.65968       -16.03023         1.80070
   H       -0.77658       -15.14044         4.09155
   H       -1.09369       -11.93145        -6.23944
   H       -1.46491       -12.55408        -1.79982
   H       -1.76717       -10.04319        -7.15934
   H       -2.07923        -6.72374       -11.22096
   H       -0.04927        -2.04469        -9.02001
   H       -2.08906        -4.69739       -12.67562
   H       -0.02382        -4.01255        -7.57344
*
