# ORCA input file
# SCF done       -183.602910656116          0.000313490286
! CAM-B3LYP def2-SVP def2/J RIJCOSX Grid4 TightSCF
%maxcore 5000
%tddft
    Mode sTDDFT
    Ethresh 5.0
    maxcore 5000
end

%pal
  nprocs 6
  end
* xyz 0 1
   C        0.15270         5.01981         5.01544
   C        1.01280         5.97826         4.54246
   C        1.11748         7.27709         5.07090
   N        1.21271         8.36216         5.43610
   C        1.92332         5.73490         3.49296
   N        2.72039         5.54019         2.68968
   C       -0.56083         5.07012         6.28539
   C       -0.90290         3.73741         6.66080
   C       -1.54596         3.46858         7.83383
   C       -1.89232         4.53777         8.69174
   C       -1.56482         5.87213         8.31467
   C       -0.88862         6.12092         7.09783
   C       -1.92316         6.92825         9.17667
   C       -2.57111         6.68119        10.35622
   C       -2.89188         5.36712        10.72743
   C       -2.55917         4.31872         9.91313
   C       -0.47307         2.80289         5.60014
   O       -0.55324         1.59531         5.59489
   C        0.01387         3.67464         4.49923
   C        0.11316         3.19346         3.22725
   C        0.10203         3.94031         2.03087
   C        0.53901         3.52296         0.77724
   C        0.37503         4.49848        -0.22920
   O        0.79949         4.40342        -1.50904
   C        1.06828         3.09907        -1.97342
   C        2.06815         2.36632        -1.09313
   S        1.31099         1.97799         0.52028
   C       -0.21726         5.66017         0.24825
   S       -0.54262         5.55475         1.94229
   C       -0.49895         6.88608        -0.43421
   C       -0.92502         6.96662        -1.77592
   C       -1.14360         8.23533        -2.40879
   N       -1.50045         8.27615        -3.70703
   C       -1.74185         7.16224        -4.33185
   C       -1.64728         5.91871        -3.66665
   N       -1.22562         5.82902        -2.43956
   C       -0.98852         9.46831        -1.72801
   C       -0.64828         9.37984        -0.36599
   C       -0.41652         8.10296         0.26608
   N       -0.14609         8.23686         1.56844
   S       -0.19574         9.78818         1.95714
   N       -0.56458        10.38022         0.51710
   C       -1.27923        10.69150        -2.40740
   C       -0.72286        11.95528        -2.22576
   C       -1.31968        12.91573        -3.04875
   O       -1.00888        14.22478        -3.14436
   C        0.23033        14.63414        -2.60268
   C        0.44197        14.12852        -1.18669
   S        0.65149        12.31479        -1.19383
   C       -2.36928        12.40291        -3.83996
   S       -2.52385        10.68218        -3.61383
   C       -3.10609        13.24052        -4.68386
   C       -4.14697        12.94084        -5.52693
   C       -4.86818        13.88451        -6.35572
   C       -4.62202        15.22725        -6.49795
   C       -5.37556        16.08295        -7.32766
   N       -5.94534        16.83510        -7.98250
   C       -3.59640        15.95710        -5.86225
   N       -2.79372        16.63723        -5.39980
   C       -5.92692        13.14705        -7.04199
   C       -5.84314        11.77707        -6.66189
   C       -4.72909        11.60789        -5.71489
   O       -4.37604        10.56202        -5.19575
   C       -6.70825        10.83763        -7.14162
   C       -7.72252        11.23257        -8.04304
   C       -7.81491        12.60023        -8.42906
   C       -6.90133        13.55048        -7.91505
   C       -8.83090        12.98420        -9.32718
   C       -9.71469        12.06313        -9.82083
   C       -9.62298        10.71664        -9.43939
   C       -8.64763        10.31026        -8.56940
   H       -1.78955         2.45243         8.10650
   H       -0.65601         7.13976         6.82865
   H       -1.67147         7.93817         8.88747
   H       -2.83974         7.49728        11.01033
   H       -3.40396         5.18966        11.66141
   H       -2.80397         3.30468        10.19388
   H        0.12561         2.11299         3.12025
   H        1.47541         3.23799        -2.97817
   H        0.13514         2.52352        -2.04009
   H        2.94941         2.98265        -0.91361
   H        2.35940         1.41546        -1.53336
   H       -2.01039         7.23616        -5.37609
   H       -1.90573         4.99196        -4.16121
   H        0.19471        15.72638        -2.62577
   H        1.04894        14.28696        -3.24697
   H       -0.41194        14.37250        -0.55451
   H        1.35274        14.53951        -0.75814
   H       -2.79105        14.27554        -4.62445
   H       -6.62210         9.80559        -6.83522
   H       -7.00137        14.57766        -8.22723
   H       -8.89773        14.02236        -9.61794
   H      -10.48976        12.36771       -10.50810
   H      -10.32873        10.00295        -9.83777
   H       -8.57195         9.27450        -8.27152
*
