# ORCA input file
# SCF done       -187.440132567330          0.000511328749
! CAM-B3LYP def2-SVP def2/J RIJCOSX Grid4 TightSCF
%maxcore 5000
%tddft
    Mode sTDDFT
    Ethresh 5.0
    maxcore 5000
end

%pal
  nprocs 6
  end
* xyz 0 1
   O       18.58020       -10.76424        -2.43197
   N       18.98288       -10.39585        -1.21552
   C       18.49883        -9.20242        -0.96966
   C       18.72370        -8.51103         0.24146
   N       18.88124        -7.92714         1.21144
   C       17.72844        -8.74393        -2.08407
   C       17.82772        -9.80031        -2.97708
   C       17.27403        -9.95368        -4.26341
   N       16.82230       -10.08049        -5.30647
   C       16.99228        -7.49448        -2.26251
   O       16.33433        -7.21640        -3.23728
   O       17.12821        -6.69091        -1.19774
   C       16.46197        -5.51197        -1.17001
   C       16.49385        -4.65106        -0.10068
   C       15.67611        -3.54127        -0.34415
   C       15.04963        -3.59171        -1.60167
   S       15.45322        -4.99035        -2.49950
   C       14.19352        -2.46980        -1.72877
   C       14.28070        -1.70827        -0.54512
   C       15.22639        -2.35030         0.35720
   C       15.58749        -1.93054         1.60301
   C       16.51211        -2.63909         2.40015
   N       17.26149        -3.20779         3.05501
   C       15.05375        -0.76019         2.18467
   N       14.62015         0.18409         2.66914
   C       13.41656        -0.62270        -0.53954
   C       12.66514        -0.55327        -1.70807
   S       13.06962        -1.83200        -2.84430
   C       11.59013         0.32939        -1.97921
   C       10.85913         0.23259        -3.18535
   C        9.61929         0.93390        -3.38996
   N        8.95207         0.77484        -4.53767
   C        9.43444        -0.00667        -5.47335
   C       10.66753        -0.70739        -5.26849
   N       11.32831        -0.57243        -4.14414
   C       11.19115        -1.54682        -6.28293
   N       11.59020        -2.21564        -7.12237
   C        8.72870        -0.14214        -6.69464
   N        8.18385        -0.26885        -7.69379
   C        9.05100         1.76578        -2.39837
   C        9.85859         1.98704        -1.25756
   C       11.10467         1.28159        -1.05161
   N       11.67125         1.62244         0.10588
   S       10.75901         2.70956         0.85021
   N        9.58666         2.80220        -0.23841
   C        7.72180         2.24138        -2.52310
   C        7.01810         3.01085        -1.60269
   C        5.68582         3.15578        -1.96250
   C        5.37028         2.49606        -3.16825
   S        6.72174         1.72908        -3.87499
   C        3.97821         2.62904        -3.39870
   C        3.41583         3.37039        -2.34517
   C        4.47010         3.74249        -1.41667
   C        4.35030         4.46678        -0.26783
   C        5.45581         4.74048         0.56623
   N        6.34599         4.96151         1.25401
   C        3.11350         4.98830         0.16846
   N        2.11282         5.41584         0.52871
   C        2.02462         3.48833        -2.44670
   C        1.56925         2.83222        -3.56350
   S        2.81683         2.07338        -4.52492
   O        0.25664         2.73942        -3.88908
   C       -0.10067         2.02531        -4.96989
   O        0.68664         1.49119        -5.71267
   C       -1.55449         1.97395        -5.10892
   C       -2.30768         1.35207        -6.15389
   N       -3.59181         1.49352        -5.92996
   O       -3.74298         2.17249        -4.79250
   C       -2.54447         2.47410        -4.27661
   C       -2.42850         3.17932        -3.06351
   N       -2.30902         3.74452        -2.07585
   C       -1.79329         0.67267        -7.28138
   N       -1.36815         0.12461        -8.18946
   H       17.06746        -4.84076         0.78758
   H       13.29476         0.08795         0.25724
   H        7.48395         3.40702        -0.71910
   H        1.37479         3.99827        -1.76006
*
