# ORCA input file
# SCF done       -223.634616691229          0.000526270975
! CAM-B3LYP def2-SVP def2/J RIJCOSX Grid4 TightSCF
%maxcore 5000
%tddft
    Mode sTDDFT
    Ethresh 5.0
    maxcore 5000
end

%pal
  nprocs 6
  end
* xyz 0 1
   C       -3.59007        11.76655         7.63724
   C       -2.51333        11.11394         8.18039
   C       -1.60130        11.70468         9.07827
   N       -0.83103        12.13214         9.81480
   C       -2.14663         9.78543         7.87884
   N       -1.76240         8.72620         7.65717
   C       -3.92254        13.17283         7.82061
   C       -5.01315        13.49483         6.97432
   C       -5.55402        14.75635         6.91662
   C       -4.98999        15.74811         7.72520
   C       -3.90396        15.41546         8.56920
   C       -3.35855        14.13859         8.63221
   S       -3.37458        16.79218         9.48442
   C       -4.58436        17.78115         8.74244
   C       -5.35322        17.11886         7.85089
   C       -5.44591        12.28902         6.24284
   O       -6.42235        12.19494         5.52861
   C       -4.53124        11.20714         6.68881
   C       -4.70206         9.88461         6.40632
   C       -5.47208         9.36858         5.32720
   C       -6.16140         8.14435         5.46188
   C       -6.98430         7.59416         4.41327
   N       -7.79435         6.56969         4.68473
   C       -7.77305         6.01988         5.87912
   C       -6.82838         6.45729         6.86166
   N       -6.07808         7.50616         6.64236
   C       -6.71175         5.75433         8.08771
   N       -6.66019         5.15628         9.06311
   C       -8.68638         4.98034         6.17232
   N       -9.40860         4.13016         6.43716
   C       -7.04826         8.19773         3.12175
   C       -6.34776         9.42521         2.99897
   C       -5.55931         9.98956         4.06330
   N       -4.91512        11.08639         3.66952
   S       -5.30520        11.41068         2.15044
   N       -6.27914        10.15747         1.88863
   C       -7.80418         7.70461         2.03962
   S       -8.38888         8.84842         0.86687
   C       -9.29308         7.64985         0.01024
   C       -9.06667         6.36940         0.55673
   C       -8.21359         6.39232         1.69688
   C       -7.79542         5.17576         2.24560
   C       -8.25438         3.97368         1.74447
   C       -7.77446         2.71616         2.31274
   C       -7.48994         2.52991         3.59485
   C       -9.17184         3.95897         0.65816
   C       -9.71148         2.66107         0.14396
   C       -9.55263         5.14250         0.07852
   C      -10.12781         7.96853        -1.08210
   C      -10.26317         9.21572        -1.59924
   C      -11.12341         9.61095        -2.67752
   C      -11.07315        10.94686        -3.11918
   C      -11.89789        11.36408        -4.13220
   C      -12.80008        10.46647        -4.73310
   C      -12.85757         9.14341        -4.31291
   C      -12.02460         8.72840        -3.29721
   C      -13.54935        11.17328        -5.74494
   C      -13.11132        12.50980        -5.77491
   C      -12.01758        12.73452        -4.75710
   C      -12.42411        13.79397        -3.71593
   C      -13.71977        13.44660        -2.99257
   C      -10.70088        13.15628        -5.43731
   C      -10.23551        12.16486        -6.49701
   C      -13.66698        13.40270        -6.65614
   C      -14.68590        12.98162        -7.52808
   C      -15.10763        11.64402        -7.48634
   C      -14.54831        10.74131        -6.60825
   C      -15.22975        13.93322        -8.46046
   C      -16.32155        13.76430        -9.24053
   C      -16.84191        14.73470       -10.13936
   C      -16.23434        15.76579       -10.78740
   C      -14.85309        16.14027       -11.01355
   C      -13.76814        15.30383       -11.07746
   C      -12.46043        15.73035       -11.38615
   N      -11.37197        16.02315       -11.60539
   C      -13.82775        13.90634       -10.91198
   N      -13.81109        12.76236       -10.81725
   C      -14.84525        17.54347       -11.41736
   C      -16.18001        17.95650       -11.66253
   C      -17.09424        16.84239       -11.35825
   O      -18.29629        16.80661       -11.49453
   C      -16.49218        19.21995       -12.10342
   C      -15.44171        20.12114       -12.30094
   C      -14.11471        19.70507       -12.03597
   C      -13.79692        18.42499       -11.59734
   S      -12.98274        20.98552       -12.33733
   C      -14.26722        22.04227       -12.81218
   C      -15.48992        21.47195       -12.74772
   H       -6.38642        14.97181         6.26462
   H       -2.53662        13.93101         9.29705
   H       -4.64589        18.81395         9.02571
   H       -6.15476        17.57040         7.29460
   H       -4.26851         9.13682         7.05888
   H       -7.07581         5.16683         3.04611
   H       -7.66066         1.89523         1.61744
   H       -7.63780         3.30022         4.33225
   H       -7.13282         1.58349         3.96229
   H      -10.11843         2.06733         0.96047
   H       -8.92250         2.07973        -0.33367
   H      -10.49597         2.83488        -0.58822
   H      -10.22039         5.12919        -0.76978
   H      -10.68338         7.14370        -1.50356
   H       -9.66564        10.00637        -1.16072
   H      -10.38088        11.63087        -2.64950
   H      -13.54685         8.45105        -4.77230
   H      -12.07652         7.70310        -2.96637
   H      -12.53778        14.75494        -4.22178
   H      -11.61764        13.89479        -2.98678
   H      -14.54359        13.36128        -3.69789
   H      -13.96410        14.22240        -2.27077
   H      -13.62340        12.50182        -2.46211
   H       -9.92970        13.25738        -4.67074
   H      -10.84438        14.13598        -5.89753
   H      -10.06822        11.18294        -6.05959
   H       -9.30407        12.50616        -6.94220
   H      -10.97667        12.06743        -7.28719
   H      -13.33178        14.42993        -6.68884
   H      -15.86977        11.30775        -8.17063
   H      -14.87918         9.71384        -6.59571
   H      -14.72081        14.89001        -8.49015
   H      -16.91767        12.86858        -9.13716
   H      -17.91522        14.68982       -10.30663
   H      -17.51623        19.50287       -12.29143
   H      -12.77161        18.15609       -11.40387
   H      -14.02221        23.04177       -13.11487
   H      -16.40395        21.97612       -13.00438
*
