# ORCA input file
# SCF done       -173.926008739465          0.000917915535
! CAM-B3LYP def2-SVP def2/J RIJCOSX Grid4 TightSCF
%maxcore 5000
%tddft
    Mode sTDDFT
    Ethresh 5.0
    maxcore 5000
end

%pal
  nprocs 6
  end
* xyz 0 1
   C       -0.83157         3.50688         4.64339
   C        0.26237         4.33943         4.69985
   C        1.38182         4.11592         5.52292
   N        2.32353         3.97914         6.16714
   C        0.39688         5.53522         3.96781
   N        0.56792         6.53221         3.42265
   C       -1.03868         2.32087         5.46918
   C       -2.32199         1.79570         5.18510
   C       -2.81827         0.67711         5.80550
   C       -2.01030         0.04712         6.75948
   C       -0.72969         0.57768         7.03512
   C       -0.22554         1.70890         6.40342
   S        0.10366        -0.35800         8.24097
   C       -1.26491        -1.43170         8.35733
   C       -2.29225        -1.10997         7.53696
  Br       -1.20908        -2.87819         9.55176
   C       -2.97408         2.62607         4.14772
   O       -4.03977         2.39065         3.61081
   C       -2.00830         3.69406         3.83412
   C       -2.12973         4.56601         2.77115
   C       -3.31839         4.91305         2.12484
   S       -3.26430         5.38369         0.44226
   C       -4.97440         5.56381         0.34232
   C       -5.57811         5.30539         1.57238
   C       -4.64381         4.97359         2.59588
   C       -5.10527         4.83708         3.90733
   C       -6.45182         4.88210         4.20297
   O       -6.73060         4.75994         5.52004
   C       -8.04646         4.73628         6.02721
   C       -7.40254         5.05156         3.13903
   O       -8.72864         4.99372         3.46917
   C       -9.68409         5.11398         2.44580
   C       -6.95822         5.28357         1.86431
   C       -5.56961         5.90716        -0.92862
   C       -6.46404         6.87148        -1.16121
   C       -6.96759         7.83636        -0.13448
   C       -7.00847         7.13911        -2.55025
   N       -6.54500         6.28097        -3.60579
   C       -5.29272         6.36466        -4.13808
   C       -4.33808         7.25685        -3.77751
   C       -3.08014         7.35198        -4.40743
   C       -2.08451         8.19050        -3.98490
   C       -0.80174         8.37655        -4.55552
   C       -0.02322         9.28624        -3.90657
   C       -0.63803         9.86936        -2.77679
   S       -2.25360         9.22773        -2.56905
   C       -0.11614        10.80534        -1.90575
   C        1.14844        11.43124        -1.94462
   C        1.35945        12.31072        -0.92706
   C        0.28148        12.43359        -0.01250
   S       -1.02720        11.37672        -0.52522
   C        0.27366        13.24649         1.09100
   C       -0.72931        13.41803         2.06947
   C       -0.62975        14.28701         3.15813
   C       -1.81205        14.18846         3.93572
   C       -2.21001        14.81567         5.09264
   C       -3.47020        14.47885         5.62204
   C       -4.14133        14.91999         6.74944
   C       -5.40528        14.24773         6.83426
   C       -5.50839        13.39277         5.75521
   C       -4.32030        13.50049         4.96538
   C       -3.92873        12.87411         3.81453
   C       -2.66493        13.21047         3.28158
   C       -2.00321        12.75490         2.16030
   C       -6.40742        14.41679         7.85776
   C       -6.31872        15.23296         8.90499
   H       -3.80052         0.30060         5.56656
   H        0.75977         2.07168         6.64404
   H       -3.21131        -1.66425         7.47980
   H       -1.22187         4.97746         2.34559
   H       -4.41854         4.70619         4.72629
   H       -7.92775         4.63634         7.10607
   H       -8.61277         3.88580         5.64323
   H       -8.58417         5.66023         5.80533
   H       -9.64390         6.10044         1.97199
   H      -10.64958         4.98919         2.93378
   H       -9.55854         4.33723         1.68513
   H       -7.64856         5.44233         1.05392
   H       -5.17322         5.34890        -1.76776
   H       -6.47718         7.68982         0.82211
   H       -8.04502         7.73748        -0.00118
   H       -6.77550         8.85475        -0.47153
   H       -6.76290         8.17254        -2.82238
   H       -8.10133         7.06618        -2.51486
   H       -7.04676         5.41927        -3.74339
   H       -5.10143         5.65972        -4.93609
   H       -4.50946         7.92814        -2.94914
   H       -2.88256         6.72689        -5.26812
   H       -0.49778         7.83130        -5.43211
   H        0.97589         9.54991        -4.20483
   H        1.86377        11.21834        -2.71896
   H        2.26416        12.87861        -0.79590
   H        1.17055        13.83742         1.23808
   H        0.20660        14.92568         3.37593
   H       -1.58261        15.54268         5.58910
   H       -3.77793        15.64807         7.45137
   H       -6.33878        12.74652         5.53430
   H       -4.55186        12.14237         3.31889
   H       -2.37378        12.02017         1.47032
   H       -7.29416        13.80707         7.73034
   H       -5.45750        15.85546         9.07644
   H       -7.10819        15.30344         9.63336
*
