# ORCA input file
# SCF done       -193.445650058111          0.000610220222
! CAM-B3LYP def2-SVP def2/J RIJCOSX Grid4 TightSCF
%maxcore 5000
%tddft
    Mode sTDDFT
    Ethresh 5.0
    maxcore 5000
end

%pal
  nprocs 6
  end
* xyz 0 1
   C       -3.17805        -0.66420         3.88000
   C       -1.84373        -0.94084         4.07079
   C       -1.34788        -1.76377         5.10020
   N       -0.87884        -2.41923         5.91934
   C       -0.78628        -0.46917         3.26831
   N        0.13766        -0.15130         2.66267
   C       -4.27279        -1.24313         4.66049
   C       -5.49600        -0.76985         4.12939
   C       -6.71738        -1.15096         4.62252
   C       -6.73355        -2.04954         5.69633
   C       -5.50841        -2.51022         6.22646
   C       -4.27004        -2.12127         5.72580
   S       -5.75829        -3.61095         7.55046
   C       -7.48325        -3.44059         7.36859
   C       -7.85556        -2.60312         6.37291
  Br       -8.63523        -4.38971         8.50734
   C       -5.20648         0.15463         3.01453
   O       -6.02962         0.82584         2.40595
   C       -3.75832         0.16212         2.85231
   C       -3.04710         0.95644         1.95769
   C       -3.44774         1.55894         0.77421
   C       -4.51363         1.29058        -0.07901
   C       -4.69688         1.94517        -1.32334
   C       -5.71457         1.44459        -2.08145
   C       -6.37337         0.35924        -1.46993
   S       -5.68827         0.03226         0.10309
   C       -7.44726        -0.38112        -1.94173
   C       -8.10125        -0.28569        -3.18733
   C       -9.12002        -1.18020        -3.34014
   C       -9.32609        -2.02314        -2.22317
   S       -8.16873        -1.63387        -0.96541
   C      -10.28438        -3.00881        -2.13240
   C      -10.55043        -3.85118        -1.05178
   S       -9.72579        -3.71037         0.48410
   C      -10.68161        -4.97864         1.14902
   C      -11.58642        -5.47734         0.27557
   C      -11.53879        -4.86070        -1.00370
   C      -12.26265        -5.28552        -2.15153
   C      -13.43196        -5.99318        -2.21131
   C      -13.80849        -6.59291        -3.55153
   C      -13.83207        -5.51618        -4.60377
   C      -12.88126        -5.47060        -5.61335
   C      -12.88951        -4.44745        -6.54464
   C      -13.84327        -3.44082        -6.48705
   C      -13.87817        -2.35432        -7.52300
   C      -14.77771        -2.76002        -8.69205
   C      -14.79507        -3.48909        -5.47541
   C      -14.78890        -4.51009        -4.54509
   C      -14.36034        -6.15598        -1.14926
   C      -14.56603        -5.24969        -0.14486
   C      -15.46829        -5.37368         0.92214
   C      -16.10447        -6.50531         1.38233
   C      -17.00401        -6.54640         2.47564
   C      -17.44967        -7.79179         2.80129
   C      -16.92139        -8.81651         1.98745
   S      -15.85900        -8.13248         0.77358
   C      -17.14627       -10.17527         2.07808
   C      -17.98752       -10.86246         2.98220
   C      -17.97466       -12.21574         2.84447
   C      -17.11519       -12.68525         1.81874
   S      -16.33472       -11.31417         1.02268
   C      -16.87212       -13.98026         1.47080
   N      -16.00855       -14.32895         0.48336
   C      -15.70302       -15.58285         0.08087
   S      -16.51745       -16.96678         0.74468
   C      -15.62894       -17.99139        -0.34164
   N      -15.86642       -19.35965        -0.26596
   O      -15.24998       -20.09117        -1.02315
   O      -16.68611       -19.72810         0.56453
   C      -14.77480       -17.29757        -1.16163
   C      -14.78653       -15.91598        -0.92424
   C      -13.93907       -14.99102        -1.65812
   C      -13.44279       -13.83790        -1.22216
   H       -7.63215        -0.77579         4.19134
   H       -3.36425        -2.50330         6.16591
   H       -8.87741        -2.38210         6.12356
   H       -2.01487         1.15053         2.22446
   H       -2.75925         2.29946         0.38191
   H       -4.07063         2.76875        -1.61846
   H       -6.00480         1.83100        -3.04191
   H       -7.80373         0.42849        -3.93357
   H       -9.73288        -1.25962        -4.22105
   H      -10.91127        -3.13530        -3.00638
   H      -10.50361        -5.28851         2.16012
   H      -12.24784        -6.29139         0.50892
   H      -11.77767        -5.08782        -3.09966
   H      -14.79109        -7.06292        -3.48257
   H      -13.08156        -7.36071        -3.82805
   H      -12.12753        -6.24353        -5.67592
   H      -12.14153        -4.42945        -7.32483
   H      -12.86965        -2.16391        -7.89571
   H      -14.25907        -1.43182        -7.08015
   H      -14.40761        -3.67212        -9.15450
   H      -14.80329        -1.97461        -9.44374
   H      -15.79172        -2.94121        -8.34349
   H      -15.54653        -2.71463        -5.41532
   H      -15.53128        -4.52944        -3.75964
   H      -15.03641        -6.99745        -1.23165
   H      -14.01682        -4.31769        -0.19154
   H      -15.66698        -4.47506         1.49291
   H      -17.29003        -5.64748         2.99291
   H      -18.12712        -7.99924         3.60979
   H      -18.57798       -10.33611         3.70997
   H      -18.54856       -12.89735         3.44581
   H      -17.35904       -14.78798         1.99647
   H      -15.57172       -13.57338        -0.03631
   H      -14.15284       -17.78667        -1.88942
   H      -13.67773       -15.33370        -2.65102
   H      -13.58663       -13.46598        -0.22122
   H      -12.81506       -13.23557        -1.85518
*
