# ORCA input file
# SCF done       -205.692973517659          0.000809426369
! CAM-B3LYP def2-SVP def2/J RIJCOSX Grid4 TightSCF
%maxcore 5000
%tddft
    Mode sTDDFT
    Ethresh 5.0
    maxcore 5000
end

%pal
  nprocs 6
  end
* xyz 0 1
   C      -10.25183        -4.03631       -10.70303
   C       -9.36401        -4.72044        -9.89925
   C       -8.29987        -5.50182       -10.38913
   N       -7.41435        -6.15686       -10.71769
   C       -9.36235        -4.75772        -8.49182
   N       -9.26225        -4.85952        -7.34990
   C      -10.21669        -4.01907       -12.16541
   C      -11.28134        -3.21144       -12.63443
   C      -11.51478        -2.99500       -13.96913
   C      -10.65496        -3.60513       -14.89031
   C       -9.59567        -4.40946       -14.41309
   C       -9.35981        -4.62889       -13.06039
   S       -8.65362        -5.06672       -15.71794
   C       -9.68409        -4.26143       -16.87087
   C      -10.68156        -3.53793       -16.31070
  Br       -9.34366        -4.45079       -18.70655
   C      -12.03691        -2.68416       -11.47588
   O      -13.01155        -1.95818       -11.52131
   C      -11.35937        -3.22356       -10.28504
   C      -11.74247        -2.97863        -8.97839
   C      -12.81022        -2.19511        -8.56834
   C      -13.10396        -2.02544        -7.22158
   C      -14.14327        -1.27504        -6.63917
   C      -14.16307        -1.31875        -5.26794
   C      -13.13906        -2.10498        -4.71788
   S      -12.14479        -2.78945        -5.97717
   C      -12.82958        -2.40078        -3.39230
   C      -13.45890        -2.00286        -2.20030
   C      -12.85560        -2.51978        -1.08804
   C      -11.73118        -3.34125        -1.35112
   S      -11.45896        -3.42781        -3.07254
   C      -11.00948        -3.97063        -0.35578
   C       -9.89925        -4.82409        -0.40732
   C       -9.39602        -5.36429         0.81917
   C       -8.27169        -6.26635         0.85880
   N       -7.92109        -6.82058         2.03237
   C       -8.54892        -6.47683         3.12996
   C       -9.60051        -5.51135         3.09944
   N      -10.00550        -5.00711         1.95237
   C      -10.23001        -5.09854         4.29676
   N      -10.71587        -4.78405         5.28666
   C       -8.15258        -7.08109         4.34938
   N       -7.82716        -7.54611         5.34452
   C       -7.55776        -6.64262        -0.30350
   C       -8.05231        -6.11564        -1.51474
   C       -9.18982        -5.22750        -1.56632
   N       -9.44892        -4.84515        -2.81005
   S       -8.39094        -5.51047        -3.82618
   N       -7.54299        -6.32049        -2.73367
   C       -6.41652        -7.53265        -0.25262
   C       -5.55643        -7.54164         0.85865
   C       -4.52496        -8.44227         0.90770
   C       -4.30419        -9.34490        -0.14977
   C       -5.12945        -9.32235        -1.26854
   C       -6.17034        -8.42163        -1.31226
   C       -3.17408       -10.17391         0.18290
   C       -2.69628        -9.79619         1.45440
   C       -3.51367        -8.65263         2.00905
   C       -2.64625        -7.39905         2.22771
   C       -1.92792        -6.94686         0.96200
   C       -4.20715        -9.03602         3.33037
   C       -5.10617       -10.25854         3.19644
   C       -1.62796       -10.43865         2.02239
   C       -0.99374       -11.48572         1.32603
   C       -1.47860       -11.83980         0.05251
   C       -2.55531       -11.20180        -0.52004
   C        0.12391       -12.20665         1.85557
   C        0.68887       -12.05155         3.08380
   C        1.78462       -12.81114         3.52851
   C        2.35875       -12.69066         4.76767
   C        3.45816       -13.43009         5.27374
   C        3.81414       -13.10800         6.54513
   C        3.01675       -12.09072         7.12574
   S        1.79697       -11.55660         5.98791
   C        3.12127       -11.55411         8.38839
   C        4.05879       -11.90527         9.39993
   C        3.92180       -11.21086        10.55104
   C        2.85747       -10.24855        10.53953
   S        2.05074       -10.29394         8.96372
   C        2.48561        -9.42307        11.52746
   H      -12.33464        -2.37445       -14.29542
   H       -8.53758        -5.25093       -12.74924
   H      -11.40670        -2.97885       -16.87338
   H      -11.15598        -3.44165        -8.19360
   H      -13.43099        -1.70625        -9.30442
   H      -14.84653        -0.72613        -7.23981
   H      -14.88468        -0.80736        -4.65593
   H      -14.32240        -1.36203        -2.18146
   H      -13.18778        -2.33732        -0.08087
   H      -11.36577        -3.78905         0.65221
   H       -5.70286        -6.83447         1.65837
   H       -4.96852       -10.00888        -2.08608
   H       -6.83070        -8.40989        -2.16381
   H       -1.91053        -7.61429         3.00538
   H       -3.28704        -6.59245         2.58946
   H       -1.26580        -7.72813         0.59494
   H       -1.33236        -6.06018         1.16678
   H       -2.64328        -6.70769         0.17816
   H       -4.80653        -8.18955         3.67060
   H       -3.44152        -9.22864         4.08464
   H       -5.89286       -10.07680         2.46784
   H       -5.57207       -10.48072         4.15320
   H       -4.53380       -11.12777         2.87841
   H       -1.26993       -10.14232         2.99592
   H       -0.98791       -12.64101        -0.48181
   H       -2.91272       -11.49373        -1.49612
   H        0.54786       -12.95917         1.20082
   H        0.29654       -11.32361         3.78083
   H        2.20750       -13.54580         2.85528
   H        3.94767       -14.17858         4.67565
   H        4.62295       -13.56998         7.08209
   H        4.80269       -12.66430         9.23489
   H        4.53634       -11.33830        11.42439
   H        3.00255        -9.42826        12.47077
   H        1.66683        -8.73672        11.41307
*
