# ORCA input file
# SCF done       -155.441164797147          0.000768503856
! CAM-B3LYP def2-SVP def2/J RIJCOSX Grid4 TightSCF
%maxcore 5000
%tddft
    Mode sTDDFT
    Ethresh 5.0
    maxcore 5000
end

%pal
  nprocs 6
  end
* xyz 0 1
   C       -2.01117        -6.42947         1.18484
   C       -0.93667        -5.74685         0.75380
   C       -0.84449        -4.35111         0.45873
   C        0.35999        -3.96422        -0.03306
   C        1.29555        -5.01650        -0.16967
   S        0.60845        -6.52471         0.38706
   C        2.58732        -4.94184        -0.66357
   C        3.29305        -3.80096        -1.09203
   C        4.57353        -4.06567        -1.49045
   C        4.93835        -5.42407        -1.40203
   S        3.59038        -6.36927        -0.80891
   C        6.18324        -5.95128        -1.69955
   C        6.56683        -7.27956        -1.61596
   S        5.47416        -8.59858        -1.20308
   C        6.73340        -9.82174        -1.29504
   C        7.96341        -9.20033        -1.64544
   C        7.84517        -7.80689        -1.82757
   S        9.34072        -7.05665        -2.25822
   C       10.10770        -8.62288        -2.19114
   N       11.47478        -8.68087        -2.47552
   O       12.01980        -9.77088        -2.43049
   O       12.02589        -7.62700        -2.75157
   C        9.26969        -9.65886        -1.85820
   C        6.52077       -11.15597        -1.04711
   C        5.29798       -11.76513        -0.75606
   C        5.09286       -13.11572        -0.45058
   C        3.77524       -13.44623        -0.22414
   C        2.90129       -12.36579        -0.35809
   S        3.77861       -10.91011        -0.75359
   C        1.50702       -12.34007        -0.23021
   C        0.64743       -13.36220         0.18368
   C       -0.67594       -12.99124         0.20338
   C       -0.90413       -11.66927        -0.20695
   S        0.60965       -10.89494        -0.61195
   C       -2.13513       -11.02939        -0.27717
   C       -2.37757        -9.74571        -0.72777
   S       -1.16989        -8.67541        -1.42026
   C       -2.29743        -7.33643        -1.62811
   C       -3.59494        -7.74943        -1.22521
   C       -3.60732        -9.07483        -0.73178
   S       -5.17198        -9.61655        -0.24554
   C       -5.81447        -8.07670        -0.74527
   N       -7.19400        -7.87804        -0.60517
   O       -7.65486        -6.80894        -0.96157
   O       -7.83594        -8.80092        -0.13233
   C       -4.88718        -7.19788        -1.24197
   C       -1.74870        -6.17760        -2.15396
   C       -2.21103        -4.87318        -2.20514
   C       -1.47965        -3.80361        -2.76888
   C       -2.07867        -2.58285        -2.65620
   C       -3.32117        -2.62089        -1.99138
   S       -3.70328        -4.26794        -1.52960
   C       -4.17986        -1.57777        -1.70621
   C       -4.01279        -0.20680        -2.03897
   C       -5.03002         0.58980        -1.63619
   C       -6.08275        -0.09918        -0.94884
   S       -5.68376        -1.82164        -0.85025
   C       -7.21148         0.41665        -0.44066
   H       -2.94138        -5.92413         1.37527
   H       -1.96615        -7.48383         1.38843
   H       -1.67513        -3.69310         0.64125
   H        0.60159        -2.95441        -0.31331
   H        2.85362        -2.81981        -1.08605
   H        5.26636        -3.32076        -1.84031
   H        6.94902        -5.25336        -2.01481
   H        9.60678       -10.67592        -1.77990
   H        7.38489       -11.80612        -1.08248
   H        5.90736       -13.81651        -0.40089
   H        3.43670       -14.43740         0.01787
   H        1.00479       -14.33523         0.46833
   H       -1.48207       -13.63900         0.49907
   H       -2.99884       -11.58792         0.06176
   H       -5.16539        -6.22681        -1.60262
   H       -0.73391        -6.29611        -2.51896
   H       -0.52607        -3.96912        -3.23887
   H       -1.65786        -1.66628        -3.02816
   H       -3.14432         0.13968        -2.57051
   H       -5.08372         1.65117        -1.80061
   H       -7.41953         1.46898        -0.52089
   H       -7.93948        -0.19807         0.05623
*
