# ORCA input file
# SCF done       -211.696396780499          0.000808165504
! CAM-B3LYP def2-SVP def2/J RIJCOSX Grid4 TightSCF
%maxcore 5000
%tddft
    Mode sTDDFT
    Ethresh 5.0
    maxcore 5000
end

%pal
  nprocs 6
  end
* xyz 0 1
   C       -2.16024        -5.40188         7.28305
   S       -1.77426        -6.69795         6.24753
   C       -2.92768        -6.19439         5.05419
   C       -3.59039        -5.04071         5.47443
   C       -3.14354        -4.58750         6.75887
   C       -3.70706        -3.42415         7.32230
   C       -4.67713        -2.72448         6.65100
   C       -5.24290        -1.50783         7.23292
   C       -5.43075        -1.31074         8.53077
   C       -5.12603        -3.17705         5.36787
   C       -6.20042        -2.42137         4.64636
   C       -4.59289        -4.30454         4.80925
   C       -3.10262        -6.90306         3.82829
   C       -2.39564        -7.97401         3.44926
   C       -2.57127        -8.65874         2.14084
   C       -2.81074       -10.16799         2.28177
   O       -3.51514       -10.71376         3.07396
   O       -2.10628       -10.82587         1.34555
   C       -1.44335        -9.92910         0.46266
   C       -1.30720        -8.62961         1.26959
   C       -1.10632        -7.37023         0.44015
   C       -2.12030        -7.23849        -0.68907
   C       -2.21243        -8.47097        -1.58186
   C       -2.27903        -9.81535        -0.83355
   O       -1.82041       -10.77857        -1.77561
   C       -1.13087       -10.22204        -2.77766
   O       -0.63678       -10.84837        -3.66468
   C       -1.07507        -8.69804        -2.59636
   C        0.29439        -8.32681        -2.13888
   C        0.98620        -7.31914        -2.68498
   C        2.30237        -6.87877        -2.30473
   C        2.98809        -7.24997        -1.13064
   C        4.33576        -6.79324        -0.87745
   N        5.02837        -7.30372         0.15992
   C        4.41895        -8.07097         1.01990
   C        3.01251        -8.33665         0.88841
   N        2.36030        -7.97328        -0.18773
   C        2.30181        -9.00160         1.91418
   N        1.71900        -9.52436         2.75146
   C        5.15468        -8.65715         2.07993
   N        5.72028        -9.15547         2.94219
   C        4.97467        -5.83712        -1.67832
   C        4.27526        -5.40637        -2.80789
   C        2.97115        -5.95361        -3.12776
   N        2.48274        -5.43543        -4.25968
   S        3.52895        -4.38440        -4.85442
   N        4.66199        -4.50911        -3.72865
   C        6.26492        -5.28520        -1.17215
   C        5.97853        -4.34779         0.01570
   O        5.14281        -4.49861         0.85490
   O        6.80741        -3.30782        -0.03268
   C        7.72137        -3.38901        -1.12616
   C        7.09097        -4.40404        -2.10288
   C        8.05059        -5.18150        -2.99938
   C        9.31039        -5.64527        -2.28123
   C       10.03075        -4.53218        -1.53222
   C        9.12519        -3.73554        -0.57929
   O        9.84366        -2.53158        -0.33410
   C       10.76041        -2.29442        -1.28712
   O       11.46915        -1.33548        -1.28932
   C       10.71708        -3.41233        -2.33849
   C        9.94074        -2.89622        -3.50125
   C       10.35182        -2.87339        -4.77587
   C        9.49458        -2.47607        -5.84661
   S        7.78435        -2.34261        -5.59643
   C        7.47241        -1.94782        -7.25181
   C        8.66452        -1.90476        -7.97543
   C        9.81331        -2.21522        -7.18040
   C       11.08720        -2.20543        -7.77766
   C       11.23613        -1.90233        -9.10810
   C       12.56801        -1.87795        -9.71053
   C       13.56497        -2.68325        -9.36874
   C       10.08735        -1.59068        -9.90361
   C       10.25071        -1.27067       -11.35810
   C        8.84280        -1.60099        -9.34199
   C        6.14086        -1.72710        -7.72238
   C        5.03957        -1.83405        -6.97665
   H       -1.65285        -5.29821         8.22152
   H       -3.34521        -3.07938         8.27886
   H       -5.52446        -0.73227         6.53343
   H       -5.20066        -2.06612         9.26355
   H       -5.84151        -0.39018         8.90866
   H       -7.06696        -2.27654         5.28967
   H       -6.51399        -2.96053         3.75569
   H       -5.83986        -1.43900         4.33999
   H       -4.94400        -4.64164         3.84483
   H       -3.87007        -6.51042         3.17335
   H       -1.62577        -8.37538         4.09347
   H       -3.43311        -8.23993         1.61016
   H       -0.47552       -10.37764         0.22094
   H       -0.44847        -8.74781         1.93883
   H       -0.09530        -7.37433         0.03232
   H       -1.19115        -6.50562         1.10177
   H       -1.86201        -6.37752        -1.30771
   H       -3.11040        -7.05051        -0.26802
   H       -3.13430        -8.38886        -2.17027
   H       -3.31082       -10.08749        -0.58400
   H       -1.28463        -8.20219        -3.54656
   H        0.72883        -8.92947        -1.35668
   H        0.56441        -6.76363        -3.51291
   H        6.85033        -6.11421        -0.75620
   H        7.76443        -2.37980        -1.54713
   H        6.39833        -3.85821        -2.74982
   H        8.32262        -4.56488        -3.85395
   H        7.51702        -6.05053        -3.38870
   H        9.99588        -6.08585        -3.00667
   H        9.05688        -6.42274        -1.55622
   H       10.81364        -4.99430        -0.91846
   H        8.99871        -4.23578         0.38661
   H       11.72653        -3.68330        -2.65078
   H        8.96393        -2.49378        -3.27683
   H       11.34876        -3.19441        -5.04324
   H       11.95654        -2.40903        -7.17215
   H       12.72300        -1.14624       -10.49172
   H       13.45072        -3.45226        -8.62290
   H       14.53157        -2.61555        -9.83757
   H       10.82029        -2.04987       -11.86230
   H       10.78246        -0.32751       -11.48573
   H        9.28036        -1.18046       -11.84019
   H        7.97857        -1.36963        -9.94696
   H        6.05840        -1.46317        -8.76815
   H        5.09246        -2.09533        -5.93206
   H        4.06146        -1.65691        -7.38623
*
