# ORCA input file
# SCF done       -178.471778952596          0.000418283181
! CAM-B3LYP def2-SVP def2/J RIJCOSX Grid4 TightSCF
%maxcore 5000
%tddft
    Mode sTDDFT
    Ethresh 5.0
    maxcore 5000
end

%pal
  nprocs 6
  end
* xyz 0 1
   C        1.38347        -0.24486         3.41723
   C        0.96896        -1.67638         3.35932
   O        1.15691        -2.43260         2.43192
   C        0.34835        -1.95290         4.66694
   C        0.26923        -0.76995         5.40271
   C        0.76646         0.33697         4.58977
   C        0.46000         1.65847         4.78177
   C        0.70980         2.67132         3.83283
   N        0.84162         3.52964         3.08231
   C       -0.22601         2.16014         5.90698
   N       -0.75984         2.63328         6.80644
   C       -0.26075        -0.77091         6.69953
   C       -0.71027        -1.95360         7.22621
   C       -0.66176        -3.16454         6.50141
   C       -0.11525        -3.17780         5.18492
   C       -0.06489        -4.38965         4.46634
   C       -0.54114        -5.54180         5.02857
   C       -1.08309        -5.53403         6.32397
   C       -1.14178        -4.37324         7.04523
   C        2.25630         0.23159         2.49082
   C        3.04619         1.40572         2.53225
   C        3.48564         2.12583         3.62888
   C        4.26347         3.21755         3.25764
   C        4.42257         3.35471         1.86964
   S        3.64124         2.07697         1.02126
   C        5.14185         4.48645         1.49253
   C        5.54637         5.21991         2.59015
   S        5.04864         4.49921         4.10789
   C        6.24605         6.46435         2.56811
   C        6.64405         7.12543         3.72737
   O        6.38900         6.50435         4.92592
   C        7.53363         6.13322         5.68170
   C        7.23659         8.41763         3.71478
   O        7.54168         9.04572         4.89512
   C        6.45170         9.34229         5.75903
   C        7.56318         9.08556         2.53635
   C        7.23935         8.39860         1.33514
   C        6.56867         7.12191         1.35060
   N        6.38284         6.76635         0.09555
   O        6.89412         7.74066        -0.65051
   N        7.41087         8.73049         0.07148
   C        8.12848        10.39686         2.52204
   C        8.40240        11.15952         1.40300
   C        8.88551        12.41871         1.74857
   C        8.99257        12.63152         3.13107
   S        8.49410        11.23421         4.01584
   C        9.42277        13.91104         3.46971
   C        9.68687        14.68670         2.35574
   S        9.35692        13.81788         0.85967
   C       10.03554        16.05962         2.37987
   C       10.51424        16.84644         1.38274
   C       10.33364        18.32498         1.45277
   O       10.04787        18.96249         2.44227
   C       10.51478        18.79486         0.06708
   C       10.93159        17.73174        -0.73584
   C       11.10112        16.54454         0.09470
   C       11.91333        15.47755        -0.18105
   C       12.27111        14.52454         0.79663
   N       12.62304        13.77194         1.58835
   C       12.56388        15.27749        -1.41486
   N       13.10332        15.06796        -2.40606
   C       11.14853        17.91227        -2.10742
   C       10.94473        19.15584        -2.64641
   C       10.53345        20.25572        -1.86151
   C       10.30871        20.08301        -0.46444
   C        9.89545        21.18363         0.31345
   C        9.71257        22.40725        -0.26944
   C        9.93257        22.58334        -1.64499
   C       10.33390        21.53296        -2.42391
   H       -0.30592         0.13698         7.27877
   H       -1.11884        -1.97245         8.22628
   H        0.35315        -4.38326         3.47214
   H       -0.50369        -6.46945         4.47734
   H       -1.45425        -6.45542         6.74778
   H       -1.55880        -4.36453         8.04193
   H        2.40099        -0.40900         1.62593
   H        3.27672         1.84806         4.64612
   H        5.35664         4.78261         0.48334
   H        7.14852         5.69161         6.59816
   H        8.16133         6.99494         5.91718
   H        8.12602         5.39086         5.13885
   H        6.89607         9.81053         6.63449
   H        5.90463         8.44495         6.05144
   H        5.76488        10.04448         5.27828
   H        8.24716        10.80242         0.40267
   H        9.55986        14.26573         4.47473
   H        9.79017        16.58026         3.30114
   H       11.45565        17.08708        -2.72951
   H       11.09987        19.31292        -3.70409
   H        9.72898        21.03629         1.36885
   H        9.39599        23.24986         0.32698
   H        9.78123        23.55819        -2.08450
   H       10.50465        21.66629        -3.48243
*
