# ORCA input file
# SCF done       -181.863598338204          0.000464264535
! CAM-B3LYP def2-SVP def2/J RIJCOSX Grid4 TightSCF
%maxcore 5000
%tddft
    Mode sTDDFT
    Ethresh 5.0
    maxcore 5000
end

%pal
  nprocs 6
  end
* xyz 0 1
   C        4.57310        -0.07406         2.08364
   C        3.74659         0.36293         3.24649
   O        2.76552         1.07108         3.19287
   C        4.35369        -0.29175         4.41841
   C        5.51990        -0.95260         4.02968
   C        5.76787        -0.69694         2.61359
   C        6.98790        -0.77993         1.99665
   C        7.25521        -0.26276         0.71194
   N        7.54204         0.18220        -0.30637
   C        8.14962        -1.29854         2.60576
   N        9.12051        -1.72613         3.04372
   C        6.26641        -1.68970         4.95777
   C        5.83651        -1.73738         6.25827
   C        4.67497        -1.06014         6.69001
   C        3.90145        -0.31573         5.75209
   C        2.74163         0.35703         6.18727
   C        2.36554         0.29795         7.50088
   C        3.12407        -0.43306         8.42929
   C        4.25215        -1.09828         8.03419
   C        4.09190         0.08654         0.82310
   C        4.51803        -0.54716        -0.36896
   C        5.18559        -1.75081        -0.52243
   C        5.43115        -2.04610        -1.85743
   C        4.95710        -1.06834        -2.74971
   S        4.15196         0.20521        -1.91277
   C        5.26496        -1.32647        -4.07883
   C        5.97916        -2.50689        -4.22149
   S        6.24986        -3.31862        -2.69207
   C        6.52196        -3.03128        -5.42730
   C        7.27184        -4.22729        -5.44090
   C        7.93679        -4.70881        -6.61538
   N        8.64750        -5.85224        -6.54671
   C        8.72383        -6.49699        -5.42943
   C        8.06472        -6.01926        -4.26460
   N        7.37250        -4.92847        -4.29394
   F        8.13116        -6.68750        -3.11865
   F        9.42433        -7.62519        -5.40469
   C        7.89371        -4.02390        -7.84908
   C        7.07669        -2.86832        -7.86606
   C        6.40434        -2.38207        -6.67946
   N        5.70425        -1.27568        -6.93506
   S        5.86451        -0.88771        -8.48112
   N        6.82900        -2.08916        -8.92016
   C        8.66601        -4.45105        -8.96472
   C        8.73873        -3.83670       -10.20615
   C        9.65547        -4.46487       -11.03861
   C       10.29632        -5.56755       -10.44678
   S        9.72806        -5.83927        -8.83765
   C       11.26524        -6.15041       -11.25376
   C       11.38129        -5.50861       -12.47545
   S       10.23510        -4.18831       -12.63807
   C       12.24728        -5.80492       -13.55554
   C       13.43013        -6.47305       -13.53000
   C       13.98711        -7.02997       -14.79725
   O       13.61532        -6.75467       -15.91652
   C       15.01683        -7.99499       -14.37413
   C       15.17139        -7.93250       -12.98846
   C       14.31342        -6.87758       -12.45640
   C       14.50744        -6.22433       -11.26835
   C       13.84333        -5.03282       -10.90949
   N       13.37097        -4.03745       -10.58807
   C       15.46313        -6.60382       -10.30286
   N       16.21185        -6.87280        -9.47557
   C       16.06788        -8.78415       -12.33049
   C       16.80053        -9.67054       -13.07609
   C       16.68692        -9.74228       -14.48186
   C       15.77013        -8.88772       -15.16112
   C       15.65917        -8.96383       -16.56435
   C       16.42954        -9.84875       -17.26717
   C       17.33464       -10.69252       -16.60344
   C       17.46044       -10.64258       -15.24225
   H        7.15463        -2.22042         4.65573
   H        6.39713        -2.30592         6.98613
   H        2.16690         0.91507         5.46511
   H        1.47875         0.81580         7.83438
   H        2.80834        -0.46609         9.46152
   H        4.83793        -1.66083         8.74671
   H        3.23652         0.74940         0.73580
   H        5.44971        -2.39310         0.29788
   H        5.00826        -0.69988        -4.91157
   H        8.15639        -2.97156       -10.45992
   H       11.83751        -7.01844       -10.98129
   H       11.90482        -5.50814       -14.54208
   H       16.17245        -8.75424       -11.25810
   H       17.49257       -10.33880       -12.58432
   H       14.96026        -8.31113       -17.06308
   H       16.34673        -9.90435       -18.34226
   H       17.93287       -11.38369       -17.17849
   H       18.15655       -11.29032       -14.72926
*
