# ORCA input file
# SCF done       -177.073665554846          0.000624265229
! CAM-B3LYP def2-SVP def2/J RIJCOSX Grid4 TightSCF
%maxcore 5000
%tddft
    Mode sTDDFT
    Ethresh 5.0
    maxcore 5000
end

%pal
  nprocs 6
  end
* xyz 0 1
   C       12.65912         6.79138         2.88004
   C       13.02454         8.03811         2.47866
   S       13.57474         8.03131         0.84192
   C       13.30737         6.30994         0.69155
  Cl       13.64147         5.48693        -0.75069
   C       12.82024         5.80099         1.85759
   C       12.40439         4.49479         2.37294
   O       12.40736         3.43129         1.78274
   C       11.98048         4.74131         3.76468
   C       12.13987         6.15269         4.07523
   C       11.86812         6.81188         5.24563
   C       12.07925         8.20159         5.36766
   N       12.24300         9.33096         5.48633
   C       11.36749         6.23588         6.42927
   N       10.96206         5.83178         7.42505
   C       11.50482         3.79275         4.63113
   C       11.28586         2.41664         4.45318
   C       10.76639         1.62442         5.47945
   C       10.60536         0.30634         5.09793
   C       11.00471         0.06483         3.76886
   S       11.58456         1.48533         2.98971
   C       10.81318        -1.27300         3.41438
   C       10.27136        -2.03871         4.45583
   S        9.99915        -1.11696         5.90534
   C       10.05060        -3.37542         4.12321
   C       10.42288        -3.64501         2.82232
   S       11.06199        -2.22791         2.00305
   C       10.34375        -4.87657         2.11060
   C        9.68298        -6.04541         2.46813
   C        8.92789        -6.16501         3.64501
   N        8.30425        -6.23530         4.60496
   C        9.82324        -7.06997         1.48961
   C       10.59027        -6.63572         0.41399
   S       11.14752        -5.01645         0.56372
   S       10.81867        -7.79664        -0.85220
   C        9.85911        -8.90310         0.07378
   C        9.39130        -8.41563         1.28839
   C        8.61754        -9.39641         1.97235
   C        8.03865        -9.21936         3.23906
   N        7.57651        -9.09649         4.28144
   C        8.51461       -10.58436         1.26224
   S        9.37942       -10.52025        -0.26060
   C        7.82013       -11.77983         1.59963
   C        7.82748       -12.94760         0.86176
   C        7.03357       -13.93478         1.44193
   C        6.40992       -13.52282         2.62710
   S        6.81850       -11.89854         3.03417
   C        5.61374       -14.52863         3.18193
   C        5.63369       -15.70386         2.41273
   S        6.64742       -15.57370         1.00358
   C        4.82314       -16.71463         2.91449
   C        4.17573       -16.33187         4.07795
   S        4.60857       -14.69685         4.56155
   C        3.31724       -17.07109         4.92130
   C        2.59575       -18.19920         4.66978
   C        2.12388       -19.00480         5.84120
   O        2.14112       -18.66351         6.99889
   C        1.69973       -20.28350         5.25909
   C        1.25176       -21.48967         5.70688
   S        0.94590       -22.56650         4.36368
   C        1.41515       -21.36727         3.21315
   C        1.79084       -20.21595         3.82991
   C        2.22332       -18.88287         3.44805
   C        2.05788       -18.35320         2.19395
   C        1.61936       -19.14705         1.11443
   N        1.28309       -19.78519         0.22204
   C        2.22081       -16.99376         1.87105
   N        2.31117       -15.88868         1.57358
  Cl        0.99058       -21.98024         7.30692
   H       13.01142         8.96129         3.02312
   H       11.23833         4.13535         5.62420
   H       10.52057         2.01684         6.44953
   H        9.64500        -4.10567         4.79666
   H        8.38316       -13.06945        -0.05025
   H        4.74584       -17.69496         2.48138
   H        3.26740       -16.72993         5.95165
   H        1.38782       -21.60233         2.16770
*
