# ORCA input file
# SCF done       -190.808954220382          0.000861087705
! CAM-B3LYP def2-SVP def2/J RIJCOSX Grid4 TightSCF
%maxcore 5000
%tddft
    Mode sTDDFT
    Ethresh 5.0
    maxcore 5000
end

%pal
  nprocs 6
  end
* xyz 0 1
   C       -1.53548        -3.52940        -0.40076
   C       -2.80866        -3.35547        -0.84527
   S       -3.87914        -2.97862         0.45654
   C       -2.58130        -3.05762         1.62671
  Cl       -2.86526        -2.77916         3.27443
   C       -1.40444        -3.35878         1.01300
   C       -0.00508        -3.55833         1.41251
   O        0.43414        -3.47702         2.54132
   C        0.71307        -3.87429         0.15245
   C       -0.23129        -3.84489        -0.95299
   C       -0.00773        -4.05086        -2.29186
   C       -1.06101        -3.96929        -3.22632
   N       -1.90089        -3.91261        -4.00672
   C        1.21890        -4.34579        -2.91706
   N        2.17360        -4.58778        -3.50945
   C        2.04394        -4.17393        -0.02351
   C        3.12199        -4.23873         0.86859
   C        3.23995        -4.00182         2.23971
   C        4.52706        -4.17567         2.69695
   C        5.42935        -4.55362         1.68626
   S        4.68160        -4.69283         0.16017
   C        6.71226        -4.70563         2.24925
   C        6.64210        -4.42193         3.61865
   C        5.23427        -4.06081         4.02641
   C        5.15932        -2.63334         4.57536
   C        4.67336        -5.05946         5.04266
   C        7.86606        -4.53970         4.25284
   C        8.87790        -4.91066         3.37471
   S        8.29675        -5.12591         1.74017
   C       10.25093        -5.10323         3.69805
   C       11.21098        -5.45060         2.74572
   O       10.77279        -5.61601         1.45447
   C       11.33413        -4.74471         0.48213
   C       12.57139        -5.67869         3.07228
   O       13.45545        -6.08036         2.10024
   C       13.21079        -7.35499         1.52003
   C       13.09009        -5.46494         4.35077
   C       12.14196        -5.07132         5.33392
   C       10.74203        -4.92287         5.01955
   N       10.12811        -4.58114         6.13395
   O       11.06586        -4.52065         7.07737
   N       12.28117        -4.81144         6.61783
   C       14.46581        -5.64896         4.66572
   C       15.05813        -5.49085         5.91349
   C       16.41611        -5.75383         5.88329
   C       16.86894        -6.11294         4.60823
   S       15.61590        -6.12470         3.43714
   C       18.25163        -6.37388         4.67721
   C       18.69738        -6.16693         5.98971
   C       17.54804        -5.76370         6.88284
   C       17.76374        -4.37862         7.49796
   C       17.31046        -6.81274         7.97352
   C       20.05308        -6.38578         6.13260
   C       20.65685        -6.81081         4.95055
   S       19.50273        -6.86804         3.62284
   C       22.02936        -7.07004         4.77641
   C       22.66446        -7.75464         3.77946
   C       24.10645        -7.48020         3.51575
   O       24.86458        -6.85600         4.22066
   C       24.35665        -8.08737         2.19995
   C       25.38172        -8.16035         1.30696
   S       24.90983        -9.09303        -0.09590
   C       23.33431        -9.38452         0.55126
   C       23.18520        -8.79004         1.76305
   C       22.17418        -8.70069         2.80120
   C       21.11845        -9.56802         2.92941
   C       20.80522       -10.49802         1.91955
   N       20.52909       -11.24885         1.09634
   C       20.32773        -9.68316         4.08806
   N       19.69909        -9.83791         5.03676
  Cl       26.93177        -7.48687         1.43355
   H       -3.20013        -3.42000        -1.84075
   H        2.33096        -4.40595        -1.04272
   H        2.39573        -3.71679         2.83964
   H        5.55702        -1.92666         3.85037
   H        5.73878        -2.55677         5.49178
   H        4.12591        -2.37173         4.78689
   H        4.73247        -6.07250         4.65114
   H        3.63288        -4.82736         5.25403
   H        5.24284        -5.00858         5.96707
   H        8.05642        -4.37284         5.29639
   H       11.08201        -3.70494         0.70979
   H       10.87712        -5.03078        -0.46270
   H       12.41868        -4.84766         0.41899
   H       12.22133        -7.41151         1.06316
   H       13.30764        -8.14241         2.27289
   H       13.97936        -7.48254         0.76087
   H       14.48893        -5.19816         6.77582
   H       17.93824        -3.63998         6.71875
   H       18.62378        -4.39496         8.16257
   H       16.88526        -4.08499         8.06661
   H       17.19994        -7.79931         7.52977
   H       16.40730        -6.57306         8.52884
   H       18.15266        -6.83339         8.66030
   H       20.60620        -6.28646         7.04917
   H       22.68964        -6.59038         5.49360
   H       22.63146        -9.96370        -0.01390
*
