# ORCA input file
# SCF done       -202.927518186349          0.000892821750
! CAM-B3LYP def2-SVP def2/J RIJCOSX Grid4 TightSCF
%maxcore 5000
%tddft
    Mode sTDDFT
    Ethresh 5.0
    maxcore 5000
end

%pal
  nprocs 6
  end
* xyz 0 1
   C       -0.92733         0.20341         1.35899
   C       -1.16567         1.09609         0.31771
   C       -1.99897         2.31144         0.57278
   C       -0.63251         0.86187        -0.95925
   C       -0.89511         1.82000        -2.07676
   C        0.14609        -0.26891        -1.18115
   C        0.38047        -1.14593        -0.14185
   C       -0.15532        -0.92430         1.13583
   C        0.24881        -2.02027         2.00998
   C       -0.18509        -2.18991         3.30002
   C       -1.04719        -1.29303         3.96588
   N       -1.73827        -0.60801         4.57582
   C        0.11040        -3.27339         4.15412
   N        0.27467        -4.11393         4.92015
   C        1.12326        -2.89681         1.24595
   C        1.17203        -2.38743        -0.14534
   O        1.73834        -2.85962        -1.11247
   C        1.80469        -3.94767         1.80476
   C        2.66641        -4.90981         1.25278
   C        3.08369        -5.17187        -0.05285
   C        3.92836        -6.25799        -0.12741
   C        4.17751        -6.85429         1.12189
   S        3.36284        -6.06515         2.39690
   C        5.02561        -7.96343         0.94461
   C        5.32616        -8.08791        -0.42081
   C        4.66111        -6.99472        -1.22384
   C        5.69542        -6.08909        -1.89906
   C        3.68945        -7.56810        -2.25834
   C        6.13105        -9.17569        -0.68904
   C        6.45724        -9.89351         0.46312
   S        5.75727        -9.18633         1.90303
   C        7.22423       -11.08447         0.53120
   C        7.50087       -11.72398         1.76304
   C        8.21762       -12.96538         1.87022
   N        8.41987       -13.49106         3.09600
   C        7.97335       -12.87767         4.14320
   C        7.26710       -11.65518         4.03921
   N        7.05229       -11.12104         2.88113
   F        6.80943       -11.02343         5.11589
   F        8.20478       -13.44281         5.32898
   C        8.69826       -13.64765         0.72497
   C        8.45381       -12.98988        -0.50435
   C        7.74204       -11.73968        -0.61218
   N        7.64695       -11.34213        -1.88165
   S        8.37049       -12.41402        -2.83461
   N        8.84040       -13.44203        -1.69559
   C        9.35425       -14.90661         0.74954
   C        9.68735       -15.69184         1.85323
   C       10.27978       -16.88457         1.49336
   C       10.40984       -17.03028         0.10423
   S        9.80879       -15.67701        -0.76160
   C       10.99283       -18.28287        -0.16605
   C       11.23991       -18.94765         1.04549
   C       10.81795       -18.09544         2.21803
   C        9.73244       -18.77542         3.05603
   C       12.02581       -17.72811         3.08585
   C       11.82138       -20.18586         0.86961
   C       12.02714       -20.49479        -0.47512
   S       11.45434       -19.20813        -1.52638
   C       12.53277       -21.66831        -1.06472
   C       13.24343       -22.69216        -0.50739
   C       13.26254       -24.00977        -1.20425
   O       12.88995       -24.23298        -2.33420
   C       13.77305       -24.96532        -0.20565
   C       14.15404       -24.27115         0.95612
   C       14.63802       -24.97652         2.04340
   C       14.75227       -26.36245         1.97171
   C       14.38642       -27.04782         0.80286
   C       13.89129       -26.33760        -0.28646
   C       14.52483       -28.53445         0.72318
   C       15.27390       -27.11668         3.15286
   C       13.96809       -22.83926         0.73267
   C       14.59408       -21.84425         1.44176
   C       14.62160       -20.49371         1.04394
   N       14.69853       -19.38751         0.74552
   C       15.35014       -22.06955         2.60883
   N       15.95272       -22.19072         3.57906
   H       -1.34688         0.40920         2.33032
   H       -2.32529         2.34475         1.60849
   H       -2.87930         2.31313        -0.06920
   H       -1.43249         3.21657         0.35626
   H       -0.50979         2.80925        -1.83113
   H       -1.96566         1.91924        -2.25324
   H       -0.42138         1.48088        -2.99396
   H        0.56858        -0.46932        -2.15461
   H        1.67362        -4.07264         2.87342
   H        2.75965        -4.57014        -0.88185
   H        6.38548        -5.68682        -1.16091
   H        5.19473        -5.26182        -2.39538
   H        6.26167        -6.65407        -2.63506
   H        2.95685        -8.21024        -1.77484
   H        4.23349        -8.15283        -2.99570
   H        3.16622        -6.76014        -2.76308
   H        6.48387        -9.47626        -1.65769
   H        9.48455       -15.37209         2.85669
   H        8.87933       -19.03585         2.43343
   H        9.39818       -18.10515         3.84347
   H       10.12388       -19.68242         3.50999
   H       12.80824       -17.28453         2.47510
   H       12.42696       -18.61793         3.56448
   H       11.72993       -17.01727         3.85294
   H       12.05132       -20.87248         1.66431
   H       12.25917       -21.82922        -2.10367
   H       14.92058       -24.47037         2.95317
   H       13.60211       -26.84636        -1.19387
   H       13.92622       -29.01750         1.49492
   H       15.56159       -28.83133         0.87810
   H       14.20027       -28.89978        -0.24717
   H       15.49531       -26.44165         3.97485
   H       16.18488       -27.65344         2.89011
   H       14.54499       -27.85250         3.49097
*
