# ORCA input file
# SCF done       -141.745583120918          0.000468228449
! CAM-B3LYP def2-SVP def2/J RIJCOSX Grid4 TightSCF
%maxcore 5000
%tddft
    Mode sTDDFT
    Ethresh 5.0
    maxcore 5000
end

%pal
  nprocs 6
  end
* xyz 0 1
   C       -0.01143        -0.22864        -3.92948
   C       -0.31797        -0.54053        -2.60116
   C        0.54262        -0.11487        -1.58678
   C        1.69370         0.61245        -1.89506
   C        1.97183         0.91244        -3.20962
   C        1.11934         0.49341        -4.23016
   O        0.30457        -0.40640        -0.28896
   C       -0.82893        -1.03697         0.07484
   C       -0.85381        -1.25625         1.55253
   C       -1.77819        -1.44506        -0.82067
   C       -1.51107        -1.31340        -2.25925
   O       -2.22796        -1.82687        -3.10745
   C       -3.03225        -2.06736        -0.46890
   C       -3.71874        -2.03828         0.72492
   C       -4.90651        -2.77090         0.66000
   C       -5.13452        -3.36969        -0.58013
   S       -3.88215        -2.97379        -1.70585
   C       -6.32342        -4.10059        -0.63667
   C       -7.00777        -4.07123         0.55918
   S       -6.17350        -3.11748         1.77725
   C       -8.25489        -4.71652         0.83889
   C       -8.92564        -4.63864         2.05227
   F       -8.39865        -3.92111         3.06406
   C      -10.15084        -5.26665         2.31345
   F      -10.66370        -5.08136         3.54550
   C      -10.83906        -6.04233         1.39064
   C      -10.17869        -6.14693         0.13942
   C       -8.93070        -5.50640        -0.12687
   N       -8.59315        -5.80900        -1.38831
   N       -9.56589        -6.56317        -1.81764
   N      -10.53204        -6.80354        -0.97460
   C       -9.56975        -7.09750        -3.14491
   C      -12.09506        -6.68198         1.64716
   C      -12.81327        -7.44639         0.75307
   C      -13.99961        -7.91679         1.31779
   C      -14.20068        -7.52385         2.64120
   S      -12.89834        -6.54829         3.20375
   C      -15.39609        -7.99550         3.20273
   C      -16.12677        -8.73745         2.31394
   S      -15.31817        -8.88038         0.75486
   C      -17.37164        -9.42779         2.59580
   C      -18.36294        -9.58141         1.67393
   O      -19.50682       -10.24960         1.91239
   C      -19.71201       -10.83439         3.11569
   C      -20.89917       -11.54458         3.29954
   C      -21.14476       -12.15151         4.51111
   C      -20.22001       -12.06075         5.54917
   C      -19.05116       -11.35831         5.36919
   C      -18.77944       -10.73327         4.14885
   C      -17.53177        -9.97946         3.95519
   O      -16.71213        -9.84449         4.84662
   C      -18.35417        -9.02116         0.28775
   H       -0.68993        -0.57102        -4.69581
   H        2.34245         0.92623        -1.09261
   H        2.85965         1.47713        -3.45062
   H        1.35172         0.73632        -5.25553
   H        0.16560        -1.19958         1.92858
   H       -1.28052        -2.22716         1.78959
   H       -1.43855        -0.48323         2.04969
   H       -3.41864        -1.48840         1.59421
   H       -6.68360        -4.63295        -1.49575
   H       -8.66622        -6.75859        -3.64564
   H      -10.45153        -6.74783        -3.68276
   H       -9.59204        -8.18700        -3.10557
   H      -12.47846        -7.64001        -0.24771
   H      -15.71016        -7.80432         4.21090
   H      -21.60192       -11.60377         2.48344
   H      -22.06202       -12.70214         4.65511
   H      -20.42443       -12.54200         6.49315
   H      -18.31494       -11.26702         6.15319
   H      -17.77663        -9.66089        -0.37787
   H      -17.91472        -8.02794         0.27094
   H      -19.37704        -8.97822        -0.07866
*
