# ORCA input file
# SCF done       -222.659849153031          0.000575197889
! CAM-B3LYP def2-SVP def2/J RIJCOSX Grid4 TightSCF
%maxcore 5000
%tddft
    Mode sTDDFT
    Ethresh 5.0
    maxcore 5000
end

%pal
  nprocs 6
  end
* xyz 0 1
   C        3.17116         1.71581        -0.36136
   C        3.31222         1.84073        -1.86112
   C        2.80789         0.88559        -2.73361
   C        2.92619         1.05987        -4.10233
   C        3.53069         2.19354        -4.61318
   C        4.00026         3.16888        -3.74824
   C        3.88479         2.99808        -2.38265
   C        4.44536         1.94487         0.42880
   C        5.69966         1.98359        -0.16561
   C        6.83334         2.15035         0.61141
   C        6.73038         2.27402         1.98529
   C        5.48316         2.22585         2.58497
   C        4.35006         2.05984         1.81208
   C        2.54756         0.41890         0.09341
   C        1.26029         0.54029         0.57013
   C        0.74431         1.88045         0.61890
   C       -0.50280         2.27959         1.02798
   C       -1.52118         1.42064         1.47867
   N       -2.40158         0.79065         1.85969
   C       -0.84700         3.64615         1.02055
   N       -1.11907         4.76094         1.01825
   S        1.93199         3.03886         0.09725
   C        0.45473        -0.54967         0.94593
   N       -0.18451        -1.46190         1.22342
   C        3.29684        -0.78118         0.02871
   C        3.02463        -1.99757         0.65204
   C        3.95460        -2.97146         0.34575
   C        4.95386        -2.51799        -0.52306
   S        4.76568        -0.87384        -0.94265
   C        5.82390        -3.58876        -0.82177
   C        5.38760        -4.72994        -0.14249
   C        4.15844        -4.42940         0.68258
   C        2.96248        -5.27401         0.23532
   C        4.42804        -4.62244         2.17761
   C        6.16553        -5.84335        -0.41475
   C        7.19321        -5.56237        -1.30510
   S        7.19952        -3.88145        -1.79680
   C        8.12930        -6.50199        -1.83470
   C        9.11064        -6.18503        -2.76832
   F        9.24870        -4.90984        -3.17829
   C        9.97435        -7.12166        -3.34433
   F       10.85323        -6.65043        -4.24910
   C        9.95587        -8.48126        -3.05066
   C        8.99505        -8.83197        -2.06654
   C        8.11212        -7.87620        -1.47982
   N        7.33953        -8.53710        -0.60632
   N        7.74362        -9.77448        -0.67939
   N        8.71105       -10.02122        -1.51798
   C        7.14794       -10.80750         0.11096
   C       10.78147        -9.45232        -3.69489
   C       10.77215       -10.82091        -3.46038
   C       11.64167       -11.50242        -4.29612
   C       12.32480       -10.65265        -5.17114
   S       11.90370        -9.00704        -4.96364
   C       13.15180       -11.42876        -6.01118
   C       12.99674       -12.77983        -5.68029
   C       12.02798       -12.94352        -4.53326
   C       10.81930       -13.78850        -4.94361
   C       12.71693       -13.54681        -3.30573
   C       13.73725       -13.62013        -6.48767
   C       14.47169       -12.93085        -7.45246
   S       14.22685       -11.18799        -7.31588
   C       15.33795       -13.46207        -8.43936
   C       15.47334       -14.79498        -8.76483
   C       16.40426       -15.08331        -9.82116
   C       16.75009       -16.31507       -10.31696
   C       16.26871       -17.54781        -9.84123
   N       15.93448       -18.59380        -9.50716
   C       17.67109       -16.41582       -11.37895
   N       18.41911       -16.49049       -12.24599
   S       17.09395       -13.62974       -10.47685
   C       16.20043       -12.52991        -9.25533
   C       17.30148       -11.86008        -8.46341
   C       18.22567       -11.07860        -9.15367
   C       19.26991       -10.46901        -8.48687
   C       19.41677       -10.64245        -7.12007
   C       18.52169       -11.44150        -6.43371
   C       17.47259       -12.05360        -7.09982
   C       15.32028       -11.58346       -10.05187
   C       14.35850       -12.13529       -10.89305
   C       13.52254       -11.32365       -11.63516
   C       13.63599        -9.94630       -11.54760
   C       14.58534        -9.39074       -10.70893
   C       15.42318       -10.20108        -9.96234
   C       14.72655       -15.83727        -8.18749
   N       14.08471       -16.66740        -7.72161
   H        2.31338         0.00218        -2.35677
   H        2.53567         0.30505        -4.76806
   H        3.62220         2.32568        -5.68050
   H        4.45118         4.06912        -4.13746
   H        4.22818         3.77035        -1.70917
   H        5.80020         1.87569        -1.23471
   H        7.80130         2.18108         0.13435
   H        7.61687         2.40524         2.58707
   H        5.38996         2.31705         3.65657
   H        3.38056         2.02669         2.28920
   H        2.18784        -2.14234         1.30802
   H        2.77868        -5.13686        -0.82775
   H        2.07185        -4.97727         0.78297
   H        3.15938        -6.32641         0.42263
   H        5.27363        -4.01480         2.49211
   H        4.65257        -5.66599         2.38260
   H        3.55372        -4.33003         2.75324
   H        6.01967        -6.82896        -0.01531
   H        6.53403       -10.33908         0.87627
   H        7.93032       -11.41248         0.56724
   H        6.52726       -11.44940        -0.51645
   H       10.13864       -11.26039        -2.71342
   H       10.33290       -13.35555        -5.81469
   H       10.10185       -13.83166        -4.12826
   H       11.13773       -14.79833        -5.18874
   H       13.57658       -12.94518        -3.01908
   H       13.05411       -14.55597        -3.52779
   H       12.02236       -13.58269        -2.47047
   H       13.76131       -14.68790        -6.38712
   H       18.12711       -10.96285       -10.22384
   H       19.97463        -9.86435        -9.03726
   H       20.23336       -10.16824        -6.59725
   H       18.63858       -11.60060        -5.37219
   H       16.79807       -12.68604        -6.54212
   H       14.26526       -13.20945       -10.97361
   H       12.78342       -11.76939       -12.28347
   H       12.98604        -9.31050       -12.12932
   H       14.67830        -8.31820       -10.62929
   H       16.14481        -9.75004        -9.29891
*
