# ORCA input file
# SCF done       -230.337164648765          0.000494452017
! CAM-B3LYP def2-SVP def2/J RIJCOSX Grid4 TightSCF
%maxcore 5000
%tddft
    Mode sTDDFT
    Ethresh 5.0
    maxcore 5000
end

%pal
  nprocs 6
  end
* xyz 0 1
   C      -11.51559         0.46979        -2.13047
   C      -11.08673         1.27793        -3.14553
   F      -11.77704         2.38115        -3.46605
   C       -9.91728         0.96477        -3.86651
   F       -9.51959         1.77605        -4.85715
   C       -9.19224        -0.15286        -3.56194
   C       -9.60790        -1.00541        -2.52083
   C      -10.79105        -0.69085        -1.79162
   C      -11.22926        -1.53315        -0.74414
   C      -10.50371        -2.65336        -0.43391
   C       -9.31970        -2.95305        -1.15992
   C       -8.87456        -2.16356        -2.18022
   C       -8.70800        -4.18770        -0.62511
   O       -7.72078        -4.73036        -1.07402
   C       -9.54110        -4.57320         0.53733
   C      -10.69967        -3.69412         0.57069
   C      -11.82155        -3.83701         1.34451
   C      -12.08342        -4.90286         2.23241
   N      -12.39599        -5.74149         2.95218
   C      -12.91194        -2.94201         1.31995
   N      -13.82638        -2.24852         1.35253
   C       -9.25209        -5.46824         1.53214
   C       -8.17832        -6.36923         1.69248
   C       -7.19554        -6.80589         0.83186
   C       -6.29498        -7.70551         1.42575
   C       -6.60186        -7.96824         2.77818
   S       -8.02281        -7.11896         3.28640
   C       -5.83758        -8.79143         3.59578
   O       -6.31296        -8.91321         4.86198
   C       -5.86697        -9.91807         5.74094
   C       -4.67955        -9.34739         3.01946
   C       -4.38623        -9.11089         1.63616
   C       -5.17167        -8.31906         0.81578
   O       -5.02670        -8.02790        -0.49394
   C       -3.94972        -8.53236        -1.24663
   S       -2.88880        -9.90714         1.18850
   C       -2.64060       -10.49252         2.81862
   C       -3.66649       -10.12330         3.63734
   C       -1.43153       -11.20366         3.14193
   C       -0.43102       -11.33703         2.19148
   C        0.79249       -11.92082         2.47760
   C        1.10632       -12.41413         3.73510
   C        0.08049       -12.36275         4.72847
   N        0.30194       -12.88205         5.94894
   C       -0.65098       -12.83189         6.84016
   C       -1.89643       -12.25681         6.54598
   N       -2.14607       -11.73889         5.37268
   C       -1.18316       -11.76392         4.43244
   C        2.42982       -12.91503         4.00167
   C        2.96904       -13.37076         5.17300
   C        4.33471       -13.71822         5.07274
   C        4.83822       -13.51824         3.77426
   S        3.61857       -12.91629         2.70106
   C        6.15927       -13.74176         3.41350
   O        6.44621       -13.47915         2.11410
   C        7.75050       -13.17614         1.67892
   C        7.01241       -14.21444         4.43276
   C        6.50523       -14.40821         5.76276
   C        5.18541       -14.17131         6.10794
   O        4.57445       -14.30617         7.30828
   C        5.29261       -14.70088         8.45360
   S        7.78303       -14.97511         6.82265
   C        8.95873       -14.92188         5.53341
   C        8.38360       -14.52632         4.35054
   C       10.28925       -15.32608         5.78150
   C       11.41310       -15.09451         5.04253
   C       12.60189       -15.96396         5.25996
   O       12.77670       -16.73617         6.17376
   C       13.48232       -15.71900         4.09865
   C       14.64869       -16.34020         3.75813
   C       15.31044       -15.95565         2.56981
   C       14.74301       -14.93572         1.75223
   C       15.40213       -14.56325         0.56368
   C       16.57238       -15.17159         0.20567
   C       17.13469       -16.17774         1.01645
   C       16.51802       -16.56263         2.17407
   F       18.28277       -16.75709         0.64067
   F       17.19763       -14.81575        -0.92421
   C       13.53799       -14.30364         2.13591
   C       12.92124       -14.68468         3.29721
   C       11.71422       -14.19036         3.95692
   C       11.14790       -12.96201         3.72176
   C       10.16430       -12.37691         4.54251
   N        9.38388       -11.83727         5.18927
   C       11.52417       -12.10888         2.66579
   N       11.75865       -11.38979         1.80168
   H      -12.41385         0.72349        -1.58953
   H       -8.29880        -0.37878        -4.12269
   H      -12.12552        -1.26462        -0.20907
   H       -7.97337        -2.41813        -2.71704
   H       -9.92614        -5.46557         2.38150
   H       -7.11219        -6.48434        -0.18941
   H       -6.62624        -9.96867         6.52182
   H       -4.90833        -9.65462         6.19770
   H       -5.79296       -10.88881         5.24491
   H       -4.10734        -8.15245        -2.25520
   H       -3.94632        -9.62526        -1.26912
   H       -2.98882        -8.17083        -0.87194
   H       -3.64517       -10.39971         4.67134
   H       -0.60004       -10.94906         1.19741
   H        1.53772       -11.97012         1.69760
   H       -0.43354       -13.26060         7.80904
   H       -2.69862       -12.22410         7.27141
   H        2.40944       -13.44576         6.08521
   H        7.62420       -12.61627         0.75193
   H        8.32128       -14.08458         1.46053
   H        8.28500       -12.55462         2.40173
   H        5.70533       -15.70749         8.34816
   H        4.56164       -14.69766         9.26131
   H        6.09429       -13.99770         8.69231
   H        8.94550       -14.53328         3.43644
   H       10.43904       -15.96387         6.64746
   H       15.06205       -17.11437         4.38635
   H       14.98743       -13.79158        -0.06596
   H       16.96146       -17.33443         2.78343
   H       13.12906       -13.53818         1.49580
*
