# ORCA input file
# SCF done       -185.358932986137          0.000884243006
! CAM-B3LYP def2-SVP def2/J RIJCOSX Grid4 TightSCF
%maxcore 5000
%tddft
    Mode sTDDFT
    Ethresh 5.0
    maxcore 5000
end

%pal
  nprocs 6
  end
* xyz 0 1
   C        3.73985        -5.18519         4.07445
   C        2.27664        -5.36309         4.32888
   O        1.45790        -4.47656         4.40034
   C        2.08159        -6.82049         4.40169
   C        3.32035        -7.46553         4.34476
   C        4.38136        -6.46696         4.29783
   C        5.69505        -6.65723         4.63150
   C        6.60036        -5.59695         4.85667
   N        7.34775        -4.76863         5.12588
   C        6.26748        -7.91899         4.90049
   N        6.77907        -8.92417         5.11085
   C        3.39883        -8.86408         4.36984
   C        2.23725        -9.58605         4.46116
   C        0.97052        -8.96575         4.53765
   C        0.87690        -7.54329         4.50465
   C       -0.38935        -6.92824         4.57801
   C       -1.51861        -7.69293         4.68433
   C       -1.43244        -9.09392         4.71950
   C       -0.21668        -9.71755         4.64711
   C        4.22502        -4.01230         3.60660
   C        5.49661        -3.79841         3.00274
   C        6.24346        -4.75214         2.16246
   N        7.36968        -4.29571         1.70849
   C        7.48851        -3.03449         2.21556
   C        6.28946        -2.67962         2.99494
   C        6.43184        -1.35996         3.55870
   S        5.34356        -0.57894         4.51111
   C        7.73111        -0.92762         3.11755
   C        8.35605        -1.98011         2.28947
   N        9.60303        -1.59935         1.89052
   C        9.80681        -0.43396         2.41933
   C        8.67843         0.06664         3.23026
   C        8.64175         1.29791         3.93045
   S        7.18754         1.87778         4.67557
   C        7.98117         3.31007         5.23585
   C        7.30434         4.37379         6.00816
   O        7.88889         5.36156         6.35950
   O        6.01233         4.18003         6.29414
   C        9.30461         3.33666         4.87401
   C        9.68748         2.20200         4.14246
   O       10.91529         1.96947         3.61553
   C       12.01764         2.48668         4.17474
   C       12.23860         2.88725         5.57158
   N       13.45061         3.28911         5.80921
   C       14.11864         3.18849         4.62225
   C       13.23345         2.65744         3.56974
   C       13.95737         2.51733         2.33193
   S       13.40813         1.96272         0.88889
   C       15.28186         2.99017         2.65112
   C       15.35097         3.39621         4.06753
   N       16.60416         3.84061         4.37538
   C       17.30387         3.69449         3.29381
   C       16.54691         3.15599         2.14743
   C       17.05296         2.94546         0.83418
   C       18.32181         2.60742         0.50631
   C       18.83913         2.81583        -0.88196
   O       18.16689         3.02504        -1.86445
   C       20.30482         2.77509        -0.74567
   C       20.64681         2.41369         0.56038
   C       19.43171         2.15194         1.32160
   C       19.33146         1.41654         2.47150
   C       18.10069         0.97263         3.00347
   N       17.13229         0.52895         3.43031
   C       20.43947         0.92933         3.19697
   N       21.30962         0.52657         3.82677
   C       21.98960         2.33084         0.95079
   C       22.96133         2.60898         0.02501
   C       22.65112         2.96690        -1.30567
   C       21.28798         3.05614        -1.71469
   C       20.98330         3.41532        -3.04323
   C       21.99017         3.67483        -3.93219
   C       23.33409         3.58898        -3.53502
   C       23.65878         3.24298        -2.25166
   H        4.35149        -9.36461         4.30836
   H        2.27923       -10.66544         4.47814
   H       -0.44432        -5.85148         4.54987
   H       -2.48816        -7.22150         4.74227
   H       -2.33702        -9.67749         4.80416
   H       -0.14808       -10.79527         4.67493
   H        3.55736        -3.15766         3.65616
   H        5.89302        -5.72951         1.87750
   H       10.72380         0.09732         2.24017
   H        5.65708         3.34220         5.96513
   H        9.94892         4.16515         5.10915
   H       11.51534         2.82988         6.36633
   H       18.33527         4.00153         3.26261
   H       16.37008         3.12728         0.00993
   H       22.25509         2.06596         1.96140
   H       24.00197         2.55591         0.31033
   H       19.94769         3.47902        -3.33771
   H       21.75643         3.94893        -4.94990
   H       24.11247         3.79937        -4.25326
   H       24.69218         3.17525        -1.94425
*
