# ORCA input file
# SCF done       -202.152568226271          0.000410375741
! CAM-B3LYP def2-SVP def2/J RIJCOSX Grid4 TightSCF
%maxcore 5000
%tddft
    Mode sTDDFT
    Ethresh 5.0
    maxcore 5000
end

%pal
  nprocs 6
  end
* xyz 0 1
   C       -4.84970        -2.34009         2.27614
   S       -4.75682        -3.21167         0.81940
   C       -3.09815        -3.62940         1.10617
   C       -2.64953        -3.06586         2.28822
   C       -3.66374        -2.33402         2.95692
   C       -3.52057        -1.62195         4.26914
   F       -4.72492        -1.28815         4.76477
   F       -2.92437        -2.36870         5.20472
   F       -2.83272        -0.47575         4.16977
   C       -1.23007        -3.16911         2.75516
   F       -0.36131        -3.13354         1.72885
   F       -0.87151        -2.17870         3.57200
   F       -0.98745        -4.31841         3.41417
   C       -2.40658        -4.46226         0.17056
   C       -1.35307        -5.44103         0.45916
   N       -0.89962        -6.05246        -0.59660
   C       -1.59060        -5.54247        -1.64866
   C       -2.60128        -4.57958        -1.18685
   C       -3.27817        -3.98986        -2.32118
   S       -4.40354        -2.78913        -2.30059
   C       -2.66173        -4.60492        -3.46117
   C       -1.61723        -5.54768        -3.02296
   N       -0.95052        -6.05442        -4.09300
   C       -1.45791        -5.45641        -5.13693
   C       -2.53246        -4.51776        -4.83271
   C       -3.26386        -3.71971        -5.77684
   C       -4.60063        -3.44136        -5.55210
   C       -5.30231        -2.61220        -6.44259
   C       -6.62635        -2.16147        -6.45130
   C       -7.75499        -2.46810        -5.53276
   C       -8.30941        -3.89794        -5.75460
   N       -7.30529        -4.90802        -5.49443
   C       -7.40381        -2.26550        -4.04641
   N       -6.88527        -0.92751        -3.84251
   C       -6.74581        -1.26106        -7.57665
   C       -7.78450        -0.52223        -8.01316
   C       -7.64407         0.41044        -9.16571
   C       -6.31349         0.37627        -9.83851
   C       -5.29148        -0.38800        -9.40563
   C       -5.45213        -1.20403        -8.26293
   C       -4.58706        -2.03824        -7.57352
   C       -3.23584        -2.37534        -7.79951
   C       -2.59858        -3.20522        -6.93075
   C       -8.75405         0.19475       -10.16629
   C      -10.00258         0.64310       -10.00535
   C      -11.04227         0.47971       -10.97672
   C      -12.46458         0.63465       -10.68111
   N      -13.25188         0.49278       -11.71175
   C      -12.42795         0.25473       -12.76443
   C      -11.01659         0.20183       -12.32716
   C      -10.15941         0.03378       -13.47177
   S       -8.51633        -0.04930       -13.52274
   C      -11.06376         0.01501       -14.59740
   C      -12.45549         0.13275       -14.13111
   N      -13.31257         0.16286       -15.18345
   C      -12.56723         0.14132       -16.25059
   C      -11.12914         0.08056       -15.97014
   C      -10.06757         0.04380       -16.93002
   S       -8.63875        -0.88288       -16.60461
   C       -7.97482        -0.49797       -18.12178
   C       -8.78528         0.32584       -18.85267
   C       -9.98666         0.64905       -18.17179
   C      -11.02583         1.59661       -18.68838
   F      -11.56597         2.33355       -17.70088
   F      -10.54641         2.46856       -19.57513
   F      -12.05106         0.96100       -19.28665
   C       -8.39766         0.78952       -20.22548
   F       -7.37356         0.06208       -20.70370
   F       -9.39051         0.66940       -21.11361
   F       -7.98781         2.06530       -20.25028
   H       -5.76231        -1.86196         2.57213
   H       -0.98830        -5.70046         1.43576
   H       -1.11503        -5.70879        -6.12557
   H       -5.10616        -3.89367        -4.71608
   H       -8.56897        -1.77484        -5.76402
   H       -8.72163        -3.94775        -6.77574
   H       -9.13088        -4.04592        -5.04967
   H       -6.66698        -4.99325        -6.27699
   H       -7.73012        -5.81179        -5.32992
   H       -6.72065        -3.06175        -3.72474
   H       -8.32321        -2.35891        -3.46181
   H       -5.97820        -0.83433        -4.28882
   H       -6.75837        -0.74902        -2.85307
   H       -8.75481        -0.55358        -7.53768
   H       -7.78656         1.42199        -8.74810
   H       -6.21337         0.99973       -10.71344
   H       -4.34180        -0.38142        -9.91933
   H       -2.71939        -1.96480        -8.65412
   H       -1.55983        -3.45869        -7.07901
   H       -8.48384        -0.36135       -11.05117
   H      -10.28822         1.16570        -9.09965
   H      -12.87267         0.83117        -9.70445
   H      -13.01595         0.12441       -17.22692
   H       -7.01849        -0.88331       -18.41538
*
