# ORCA input file
# SCF done       -175.314204164470          0.000914399159
! CAM-B3LYP def2-SVP def2/J RIJCOSX Grid4 TightSCF
%maxcore 5000
%tddft
    Mode sTDDFT
    Ethresh 5.0
    maxcore 5000
end

%pal
  nprocs 6
  end
* xyz 0 1
   N       -7.33579         3.39111         0.97086
   C       -6.83261         3.24163        -0.31922
   C       -7.32821         3.82238        -1.44488
   S       -6.37845         3.47183        -2.83832
   C       -5.29585         2.51777        -1.91103
   C       -5.63967         2.48727        -0.58912
   N       -4.96013         1.85418         0.43500
   C       -3.93672         0.98828         0.30202
   C       -3.30275         0.42180         1.36117
   C       -2.25229        -0.51940         1.28293
   N       -2.01175        -1.31816         2.32183
   C       -1.05853        -2.17067         1.92040
   C       -0.64194        -1.90028         0.53347
   C        0.40942        -2.84296         0.12209
   O        0.95939        -2.94159        -0.95820
   C        0.61367        -3.64900         1.33413
   C       -0.30424        -3.21949         2.40114
   N       -0.10547        -3.94494         3.52595
   C        0.87061        -4.77539         3.22858
   C        1.37040        -4.63931         1.88463
   C       -1.35963        -0.80255         0.12937
   C       -1.22515        -0.00328        -1.04452
   C       -0.55954        -0.41996        -2.14431
   C       -0.32323         0.33180        -3.34664
   C        0.43053        -0.25585        -4.34269
   C        0.72630         0.44781        -5.52224
   C        1.46947         0.08451        -6.64212
   C        2.13057        -1.22908        -6.86873
   C        1.48510        -1.97533        -8.04946
   N        0.15437        -2.40888        -7.66564
   C        3.66503        -1.08445        -7.06119
   N        4.42392        -2.27494        -6.76099
   C        1.47215         1.22170        -7.52735
   C        2.05698         1.43495        -8.72235
   C        1.97864         2.75877        -9.39740
   C        1.01876         3.72642        -8.78355
   C        0.44093         3.50128        -7.58522
   C        0.65731         2.28357        -6.90545
   C        0.21951         1.80135        -5.68704
   C       -0.56850         2.37512        -4.66265
   C       -0.82553         1.66251        -3.53693
   C        3.32063         3.41934        -9.21297
   C        4.09554         3.86622       -10.21197
   C        5.33737         4.52768        -9.95935
   N        5.72688         4.82364        -8.72899
   C        6.92226         5.43630        -8.85778
   C        7.32443         5.53331       -10.26583
   C        8.61651         6.20514       -10.38174
   O        9.25049         6.47042       -11.38977
   C        8.96552         6.49327        -8.97791
   C        7.90233         6.01052        -8.08123
   N        8.21145         6.27162        -6.78618
   C        9.37768         6.87062        -6.82849
   C        9.90603         7.04160        -8.16385
   C        6.31354         4.94686       -10.99321
   C        6.18123         4.73282       -12.38962
   C        7.14208         5.13572       -13.25615
   N        7.13277         4.99549       -14.60589
   C        6.27116         4.23554       -15.38829
   C        5.66853         3.06334       -15.03900
   S        4.73819         2.40358       -16.32122
   C        5.15230         3.71675       -17.35617
   C        5.96902         4.62074       -16.74335
   N        6.48179         5.77781       -17.28652
   C        6.41250         6.14885       -18.60959
   C        6.76349         7.34826       -19.05701
   H       -8.20775         3.90009         0.99519
   H       -7.40518         2.52773         1.49349
   H       -8.19255         4.44819        -1.53600
   H       -4.46383         2.05435        -2.40025
   H       -5.22582         2.12922         1.37243
   H       -3.69133         0.71905        -0.71309
   H       -3.66313         0.61905         2.36233
   H        1.22456        -5.47880         3.96263
   H        2.16476        -5.21387         1.45001
   H       -1.63948         0.99370        -0.99241
   H       -0.14049        -1.41747        -2.13485
   H        0.80445        -1.25884        -4.20037
   H        1.96428        -1.84749        -5.98019
   H        2.06661        -2.87403        -8.27958
   H        1.49611        -1.32639        -8.94148
   H       -0.41939        -1.60594        -7.42872
   H       -0.29652        -2.90857        -8.42345
   H        4.03054        -0.28628        -6.41040
   H        3.88516        -0.80643        -8.09467
   H        4.32586        -2.52705        -5.78393
   H        4.10860        -3.06005        -7.31969
   H        2.67153         0.69181        -9.20875
   H        1.78376         2.63282       -10.46845
   H        0.87180         4.65274        -9.31628
   H       -0.21398         4.23869        -7.14380
   H       -0.95157         3.37806        -4.78415
   H       -1.41918         2.10887        -2.75349
   H        3.64419         3.56290        -8.19278
   H        3.80143         3.72943       -11.24374
   H        9.85730         7.18997        -5.91935
   H       10.84026         7.50635        -8.41134
   H        5.28453         4.25283       -12.74934
   H        8.01114         5.65602       -12.87363
   H        7.89177         5.43518       -15.10661
   H        5.75659         2.52319       -14.11919
   H        4.75239         3.73898       -18.34824
   H        6.78802         6.49126       -16.64055
   H        6.07743         5.36979       -19.27665
   H        7.09902         8.12709       -18.39368
   H        6.72374         7.58363       -20.10248
*
