# ORCA input file
# SCF done       -187.271746021740          0.000765760138
! CAM-B3LYP def2-SVP def2/J RIJCOSX Grid4 TightSCF
%maxcore 5000
%tddft
    Mode sTDDFT
    Ethresh 5.0
    maxcore 5000
end

%pal
  nprocs 6
  end
* xyz 0 1
   C       -0.39258         3.40603         4.23917
   C       -0.60545         3.85371         5.51806
   C        0.21018         3.51759         6.61865
   N        0.83539         3.29201         7.55504
   C       -1.68471         4.65539         5.94253
   N       -2.54591         5.27470         6.38537
   C        0.63829         2.45559         3.84938
   C        0.40058         2.06575         2.50989
   C        1.19308         1.15728         1.85096
   C        2.27768         0.61338         2.54539
   C        2.51319         1.01630         3.88159
   C        1.70798         1.93047         4.54996
   S        3.91034         0.22354         4.54005
   C        4.15944        -0.62466         3.05320
   C        3.24489        -0.33278         2.10298
   C       -0.78046         2.77773         1.98505
   O       -1.25619         2.61206         0.88067
   C       -1.20265         3.70435         3.06435
   C       -2.05733         4.76966         3.02044
   C       -2.97052         5.23019         2.03229
   C       -3.62376         6.45463         2.17757
   C       -3.52470         7.46171         3.27055
   C       -4.51699         7.14930         4.39680
   S       -4.72086         6.74200         0.89692
   C       -4.32949         5.21304         0.12736
   C       -3.39022         4.54982         0.85305
   C       -5.00346         4.81420        -1.08658
   C       -6.09237         5.51629        -1.53571
   C       -6.79076         5.10122        -2.69265
   C       -7.91502         5.60091        -3.33138
   C       -8.75708         6.80170        -3.03358
   C       -9.75280         6.52936        -1.88693
   N       -9.06698         6.25997        -0.63597
   C       -7.93486         8.06683        -2.74732
   N       -7.02772         8.32715        -3.85448
   C       -8.19950         4.70058        -4.42768
   C       -9.21054         4.67636        -5.31437
   C       -9.33981         3.59136        -6.32809
   C       -8.20461         2.61363        -6.33901
   C       -7.20046         2.65130        -5.44458
   C       -7.16772         3.65488        -4.44700
   C       -6.31944         3.90665        -3.39030
   C       -5.17142         3.22578        -2.91925
   C       -4.53430         3.66409        -1.80637
   C       -9.53078         4.18426        -7.70067
   C      -10.60564         3.95282        -8.45077
   C      -10.84323         4.47557        -9.78121
   C      -12.02707         4.26886       -10.46617
   C      -13.26344         3.57583       -10.01001
   C      -14.11893         4.51785        -9.15607
   S      -12.02054         5.02572       -12.01023
   C      -10.40202         5.63526       -11.76359
   C       -9.92232         5.22721       -10.54198
   C       -9.68797         6.35014       -12.75931
   C      -10.16623         7.02533       -13.83581
   C      -11.49623         7.48399       -14.18420
   C      -12.44828         7.93270       -13.30708
   C      -13.69073         8.46594       -13.70260
   N      -14.72215         8.89036       -13.97472
   C      -12.24812         7.99452       -11.91230
   N      -12.09943         8.10880       -10.77975
   C      -11.52381         7.66616       -15.62946
   C      -10.19519         7.58098       -16.12153
   C       -9.27897         7.27573       -15.00593
   O       -8.07288         7.18660       -15.03375
   C       -9.89387         7.75158       -17.45143
   C      -10.94881         8.00491       -18.33372
   C      -12.27114         8.07524       -17.83248
   C      -12.57774         7.91326       -16.48655
   S      -13.41005         8.38460       -19.10456
   C      -12.13372         8.42158       -20.27168
   C      -10.90927         8.21112       -19.74195
   H        0.98197         0.87682         0.83060
   H        1.93144         2.20809         5.56640
   H        4.98969        -1.30021         2.98236
   H        3.24155        -0.76344         1.11798
   H       -2.03806         5.40027         3.90049
   H       -3.75404         8.44793         2.86077
   H       -2.51172         7.49334         3.67616
   H       -5.52904         7.09239         4.00245
   H       -4.47819         7.93291         5.14829
   H       -4.27212         6.20547         4.87690
   H       -2.99797         3.58961         0.58213
   H       -6.44257         6.37071        -0.97667
   H       -9.35121         7.01100        -3.92879
   H      -10.41883         5.70577        -2.20032
   H      -10.36662         7.42315        -1.74287
   H       -8.57580         5.37394        -0.69497
   H       -9.73519         6.19430         0.12361
   H       -7.43554         7.96808        -1.77466
   H       -8.62209         8.91580        -2.67999
   H       -6.38006         7.55159        -3.95573
   H       -6.48365         9.16307        -3.67086
   H       -9.98556         5.43094        -5.32648
   H      -10.25907         3.03402        -6.08233
   H       -8.24659         1.85614        -7.10723
   H       -6.40970         1.91526        -5.47380
   H       -4.81684         2.35582        -3.45252
   H       -3.65620         3.15380        -1.44498
   H       -8.72070         4.81102        -8.04110
   H      -11.39346         3.32485        -8.05518
   H      -13.00513         2.68554        -9.43205
   H      -13.83972         3.25836       -10.88117
   H      -13.56734         4.84344        -8.27756
   H      -15.02632         4.01244        -8.83557
   H      -14.39418         5.39913        -9.73053
   H       -8.93878         5.49250       -10.19980
   H       -8.60611         6.27354       -12.70114
   H       -8.87484         7.69083       -17.80075
   H      -13.59906         7.96780       -16.14679
   H      -12.38471         8.60114       -21.29902
   H       -9.99961         8.19833       -20.31459
*
