# ORCA input file
# SCF done       -199.512864465612          0.001980109679
! CAM-B3LYP def2-SVP def2/J RIJCOSX Grid4 TightSCF
%maxcore 5000
%tddft
    Mode sTDDFT
    Ethresh 5.0
    maxcore 5000
end

%pal
  nprocs 6
  end
* xyz 0 1
   C       -3.81614         1.25239         3.55959
   C       -4.21023         0.87324         4.81421
   C       -3.50623        -0.04609         5.61974
   N       -2.98045        -0.79232         6.31526
   C       -5.34219         1.37680         5.49153
   N       -6.22085         1.75582         6.12522
   C       -2.59776         0.83806         2.88135
   C       -2.47098         1.57858         1.67926
   C       -1.41193         1.41298         0.81896
   C       -0.43437         0.47322         1.15795
   C       -0.57294        -0.26580         2.35786
   C       -1.64147        -0.09833         3.22951
   S        0.74507        -1.37556         2.56818
   C        1.45617        -0.85026         1.08118
   C        0.74638         0.11029         0.45044
   C       -3.62149         2.49063         1.52988
   O       -3.82102         3.24917         0.60687
   C       -4.50118         2.20739         2.69819
   C       -5.79729         2.58126         2.80755
   C       -6.48602         3.54460         1.97856
   C       -7.78215         3.22972         1.52842
   O       -8.28481         1.99027         1.84899
   C       -8.42407         1.08462         0.76836
   C       -7.07637         0.65855         0.19353
   C       -8.50379         4.14765         0.75886
   C       -7.90814         5.36537         0.43933
   C       -6.63737         5.68147         0.88607
   C       -5.92862         4.78200         1.65558
   C       -9.87601         3.85691         0.30965
   C      -10.80667         3.38157         1.19166
   C      -12.12400         3.10195         0.75242
   C      -13.23934         2.60942         1.41028
   C      -13.42915         2.14878         2.81798
   C      -13.08803         0.64584         2.92029
   N      -11.66272         0.42848         2.76035
   C      -12.66312         2.96978         3.86427
   N      -13.35088         2.86711         5.14624
   C      -14.29958         2.53358         0.42845
   C      -15.58911         2.16538         0.53969
   C      -16.52338         2.33998        -0.60565
   C      -15.85496         2.51316        -1.93473
   C      -14.56038         2.87773        -2.03070
   C      -13.76156         2.97021        -0.86813
   C      -12.44651         3.33206        -0.65343
   C      -11.46211         3.84212        -1.53061
   C      -10.21519         4.09727        -1.05856
   C      -17.16744         3.69162        -0.37671
   C      -18.46017         3.97972        -0.49170
   C      -18.97989         5.32974        -0.27608
   C      -18.22346         6.46820        -0.58390
   O      -17.03559         6.37830        -1.28097
   C      -17.16666         6.06302        -2.65929
   C      -15.77757         6.10327        -3.27253
   C      -18.66580         7.74402        -0.19126
   C      -19.92092         7.87313         0.40451
   C      -20.69864         6.75912         0.64599
   C      -20.22628         5.50038         0.32309
   C      -17.84161         8.90888        -0.43565
   C      -16.49393         8.96309        -0.38486
   C      -15.51566         7.98373         0.06863
   C      -15.66121         7.10285         1.10348
   C      -14.63986         6.23168         1.53216
   N      -13.83664         5.50317         1.90881
   C      -16.82087         7.01208         1.90059
   N      -17.71446         6.92779         2.61551
   C      -14.27552         8.26488        -0.63768
   C      -14.39382         9.52386        -1.28375
   C      -15.75186        10.06065        -1.06978
   O      -16.19712        11.12531        -1.43089
   C      -13.36342        10.07691        -2.00656
   C      -12.17102         9.35378        -2.10339
   C      -12.07374         8.08930        -1.47322
   C      -13.11024         7.52837        -0.73806
   S      -10.51592         7.37560        -1.73759
   C      -10.01381         8.75012        -2.66318
   C      -10.96608         9.70045        -2.77834
   H       -1.34196         1.99299        -0.08816
   H       -1.70677        -0.68777         4.12898
   H        2.37675        -1.30192         0.76644
   H        1.03476         0.55615        -0.48429
   H       -6.42747         2.08366         3.53533
   H       -9.04551         1.52155        -0.02370
   H       -8.94518         0.22673         1.19878
   H       -6.46916         0.18538         0.96267
   H       -6.53659         1.52293        -0.19048
   H       -7.23099        -0.04748        -0.61826
   H       -8.46948         6.07942        -0.14559
   H       -6.20204         6.63764         0.63855
   H       -4.95107         5.03556         2.03273
   H      -10.53443         3.21614         2.22015
   H      -14.49057         2.25458         3.06577
   H      -13.69867         0.10358         2.17506
   H      -13.37080         0.27874         3.91141
   H      -11.35183         0.80369         1.87063
   H      -11.44879        -0.56174         2.78204
   H      -12.68069         4.01867         3.56357
   H      -11.62402         2.61804         3.91268
   H      -13.24515         1.92905         5.51954
   H      -12.93228         3.50501         5.81424
   H      -16.02168         1.84971         1.47871
   H      -17.28892         1.55966        -0.63423
   H      -16.48686         2.43002        -2.80559
   H      -14.10793         3.05926        -2.99627
   H      -11.71191         4.02055        -2.56713
   H       -9.44326         4.46763        -1.71756
   H      -16.45246         4.46936        -0.15373
   H      -19.19197         3.20359        -0.67714
   H      -17.82393         6.80099        -3.14159
   H      -17.61396         5.06756        -2.77915
   H      -15.36045         7.10434        -3.19103
   H      -15.82972         5.82290        -4.32063
   H      -15.12613         5.41041        -2.74570
   H      -20.26067         8.85347         0.70141
   H      -21.66777         6.86795         1.10793
   H      -20.81472         4.62579         0.55816
   H      -18.34998         9.80983        -0.76175
   H      -13.47430        11.03881        -2.48277
   H      -12.99575         6.55670        -0.28580
   H       -9.02201         8.75992        -3.07179
   H      -10.83589        10.62183        -3.31664
*
