# ORCA input file
# SCF done       -187.687230584963          0.000806275805
! CAM-B3LYP def2-SVP def2/J RIJCOSX Grid4 TightSCF
%maxcore 5000
%tddft
    Mode sTDDFT
    Ethresh 5.0
    maxcore 5000
end

%pal
  nprocs 6
  end
* xyz 0 1
   C       -7.67293         3.22195        -8.56513
   C       -6.98857         4.32869        -9.01289
   C       -6.72109         4.60009       -10.37020
   N       -6.46354         4.89394       -11.45045
   C       -6.45049         5.36324        -8.22337
   N       -5.97948         6.25295        -7.66522
   C       -8.20577         2.17804        -9.43423
   C       -8.85650         1.21352        -8.62940
   C       -9.45906         0.09490        -9.14978
   C       -9.41644        -0.08431       -10.53602
   C       -8.76539         0.88487       -11.33389
   C       -8.15725         2.01801       -10.80631
   S       -8.83285         0.46069       -13.01691
   C       -9.71278        -0.98122       -12.64303
   C       -9.94940        -1.14399       -11.32321
   C       -8.76394         1.61096        -7.21031
   O       -9.24836         0.99417        -6.28188
   C       -7.99513         2.87116        -7.19403
   C       -7.60802         3.63728        -6.11999
   C       -7.76190         3.47378        -4.73647
   N       -7.26298         4.42242        -3.85028
   C       -6.83003         5.75338        -4.21145
   C       -8.01323         6.62584        -4.62927
   C       -7.49198         4.00342        -2.58464
   C       -8.14658         2.76925        -2.63671
   C       -8.30684         2.43407        -3.96527
   C       -7.06733         4.68208        -1.37021
   C       -5.78669         5.14047        -1.20555
   C       -5.40252         5.72311         0.02330
   C       -4.18578         6.23654         0.44207
   C       -2.93801         6.26858        -0.37335
   C       -2.11820         7.56124        -0.22150
   N       -1.50909         7.88833        -1.49906
   C       -2.07609         4.99841        -0.10257
   N       -1.64953         4.77881         1.25813
   C       -4.36537         6.65814         1.81327
   C       -3.51212         7.16695         2.72191
   C       -3.94646         7.52608         4.10232
   C       -5.38005         7.22854         4.40449
   C       -6.22069         6.70582         3.49276
   C       -5.76546         6.39497         2.19023
   C       -6.38208         5.82507         1.09572
   C       -7.69513         5.34083         0.88986
   C       -8.01820         4.78020        -0.30210
   C       -3.68652         9.00428         4.27771
   C       -2.76401         9.48367         5.11586
   C       -2.38093        10.83854         5.40120
   N       -2.59410        11.96020         4.66181
   C       -3.19169        12.03823         3.35154
   C       -4.68623        12.35177         3.42003
   C       -1.99296        13.02861         5.28053
   C       -1.40409        12.56169         6.46271
   C       -1.65260        11.20663         6.53835
   C       -2.10447        14.36269         4.82714
   C       -1.30132        15.41406         5.15870
   C        0.03228        15.46423         5.71196
   C        1.01074        14.51776         5.53472
   C        2.32926        14.65001         6.00953
   N        3.40787        14.70437         6.40009
   C        0.81922        13.35486         4.76350
   N        0.72212        12.42865         4.09129
   C        0.23520        16.80968         6.23535
   C       -0.84884        17.62528         5.81780
   C       -1.81024        16.80374         5.05610
   O       -2.82703        17.16494         4.50369
   C       -0.92344        18.96111         6.12896
   C        0.10981        19.51366         6.89314
   C        1.18019        18.68806         7.31194
   C        1.26291        17.33798         6.99073
   S        2.33384        19.58203         8.25131
   C        1.39579        21.02470         8.07483
   C        0.26916        20.85267         7.34995
   H       -9.94576        -0.62067        -8.50517
   H       -7.67416         2.72390       -11.46054
   H      -10.00212        -1.62727       -13.44904
   H      -10.48073        -1.97999       -10.90511
   H       -7.06160         4.52879        -6.39092
   H       -6.09418         5.70622        -5.01858
   H       -6.35089         6.20332        -3.34150
   H       -8.53758         6.19672        -5.47906
   H       -7.65420         7.61172        -4.90929
   H       -8.71504         6.72698        -3.80401
   H       -8.43070         2.18416        -1.78439
   H       -8.75529         1.54655        -4.36034
   H       -5.05081         5.01287        -1.98673
   H       -3.22742         6.22527        -1.42824
   H       -1.37578         7.45568         0.58921
   H       -2.78571         8.38716         0.04142
   H       -0.84396         7.17155        -1.76956
   H       -1.00866         8.76818        -1.44381
   H       -1.18015         5.04306        -0.72817
   H       -2.65776         4.12360        -0.40522
   H       -1.07329         5.54314         1.59175
   H       -2.44929         4.68949         1.87499
   H       -2.47583         7.37290         2.49633
   H       -3.30854         6.98404         4.81525
   H       -5.71016         7.47156         5.40296
   H       -7.25139         6.50408         3.74667
   H       -8.42224         5.41372         1.68515
   H       -9.01336         4.40153        -0.48125
   H       -4.32407         9.62935         3.67477
   H       -2.21264         8.77263         5.72105
   H       -3.02107        11.08841         2.83977
   H       -2.67345        12.81759         2.78678
   H       -5.20635        11.62823         4.04353
   H       -5.11377        12.32668         2.42130
   H       -4.85500        13.33908         3.84213
   H       -0.89904        13.16575         7.19065
   H       -1.35406        10.54138         7.32431
   H       -2.97878        14.62641         4.24197
   H       -1.75368        19.56285         5.79307
   H        2.09362        16.74365         7.33468
   H        1.75266        21.92646         8.53321
   H       -0.43544        21.63624         7.13743
*
