# ORCA input file
# SCF done       -213.760057449498          0.000757823401
! CAM-B3LYP def2-SVP def2/J RIJCOSX Grid4 TightSCF
%maxcore 5000
%tddft
    Mode sTDDFT
    Ethresh 5.0
    maxcore 5000
end

%pal
  nprocs 6
  end
* xyz 0 1
   C       19.32785         3.56998       -12.86229
   C       19.54424         4.69246       -13.61195
   F       20.64131         5.44084       -13.38397
   C       18.66297         5.10454       -14.61971
   C       17.54419         4.35732       -14.86481
   C       17.27167         3.19091       -14.12209
   C       18.18141         2.78827       -13.10208
   C       17.93348         1.61594       -12.34875
   C       16.81028         0.88048       -12.60635
   C       15.89650         1.29460       -13.61829
   C       16.11542         2.41425       -14.36562
   C       14.76213         0.34763       -13.66428
   O       13.81675         0.35660       -14.42565
   C       14.99181        -0.58557       -12.54095
   C       16.31934        -0.37105       -12.03324
   C       17.09129        -1.30151       -11.37773
   C       16.66262        -2.62801       -11.18140
   N       16.35271        -3.72936       -11.07684
   C       18.41157        -1.06987       -10.95396
   N       19.48292        -0.91687       -10.56830
   C       13.96696        -1.39389       -12.11365
   C       13.74618        -1.97640       -10.86509
   S       14.57904        -1.53888        -9.37087
   C       13.61204        -2.58068        -8.36048
   C       12.68080        -3.24558        -9.15880
   C       12.75380        -2.89501       -10.52820
   N       11.78493        -3.63035       -11.14260
   C       11.18601        -4.36767       -10.15309
   N       11.68195        -4.16495        -8.97251
   C       13.82125        -2.65797        -6.96934
   C       13.08790        -3.49502        -6.18816
   C       13.19810        -3.67919        -4.77432
   C       12.38838        -4.62356        -4.17224
   C       12.45391        -4.84312        -2.78567
   C       11.75468        -5.71815        -1.96558
   C       10.70688        -6.68811        -2.39521
   C       11.10818        -8.14142        -2.07555
   N       10.42645        -9.03608        -2.98925
   C        9.33954        -6.31960        -1.79119
   N        8.28038        -7.12073        -2.38620
   C       12.24164        -5.50401        -0.62226
   C       11.91756        -6.07851         0.55024
   C       12.59361        -5.69857         1.82677
   C       13.58838        -4.59247         1.69978
   C       13.89437        -4.01879         0.52301
   C       13.26437        -4.44712        -0.67197
   C       13.38794        -4.05723        -1.98685
   C       14.20821        -3.09640        -2.62804
   C       14.11410        -2.91814        -3.96737
   C       13.17362        -6.97235         2.38833
   C       14.47634        -7.21288         2.56446
   C       14.99103        -8.44637         3.06899
   S       13.99085        -9.86593         3.27642
   C       15.28105       -10.85366         3.93629
   C       16.43909       -10.07947         3.97404
   C       16.26909        -8.75329         3.48615
   N       17.50378        -8.16994         3.60674
   C       18.32279        -9.13144         4.13455
   N       17.73401       -10.26378         4.36803
   C       15.18844       -12.20188         4.31913
   C       14.10679       -13.03568         4.27163
   C       12.78256       -12.65689         3.98335
   C       11.73500       -13.48087         3.67420
   C       10.33967       -12.99943         3.80829
   O        9.97797       -11.85307         3.96717
   C        9.50086       -14.21378         3.74773
   C        8.15194       -14.33771         3.91155
   C        7.56183       -15.61972         3.83542
   C        8.38909       -16.75497         3.59559
   C        7.79627       -18.03058         3.52779
   C        6.44419       -18.15173         3.68924
   C        5.61328       -17.04783         3.92287
   C        6.17299       -15.80240         3.99355
   F        5.87533       -19.37008         3.62378
   C        9.78418       -16.59590         3.42117
   C       10.33052       -15.34358         3.48920
   C       11.70298       -14.87467         3.30485
   C       12.70669       -15.57757         2.68587
   C       13.90013       -14.98934         2.21876
   N       14.85531       -14.54872         1.75890
   C       12.60616       -16.93662         2.32817
   N       12.58250       -18.04888         2.04353
   H       20.03027         3.28053       -12.09631
   H       18.88530         5.99942       -15.17912
   H       16.84985         4.65448       -15.63650
   H       18.63487         1.33351       -11.57936
   H       15.41678         2.70665       -15.13527
   H       13.15622        -1.50854       -12.82870
   H       11.56580        -3.64745       -12.12423
   H       10.37902        -5.04431       -10.35554
   H       14.60064        -2.02871        -6.56497
   H       12.34120        -4.09777        -6.68921
   H       11.70486        -5.20070        -4.77799
   H       10.61241        -6.63426        -3.48417
   H       10.89875        -8.35640        -1.01488
   H       12.18631        -8.25492        -2.23237
   H        9.42358        -8.92553        -2.86687
   H       10.67303       -10.00009        -2.79440
   H        9.18657        -5.23430        -1.92544
   H        9.33945        -6.52158        -0.71697
   H        8.20581        -6.91376        -3.37747
   H        7.38847        -6.89997        -1.95594
   H       11.18072        -6.86483         0.62251
   H       11.80838        -5.37791         2.53215
   H       14.04860        -4.26433         2.62012
   H       14.61747        -3.21733         0.47159
   H       14.90209        -2.51426        -2.03905
   H       14.73810        -2.18484        -4.45290
   H       12.45435        -7.74419         2.62856
   H       15.21079        -6.45161         2.33612
   H       17.76216        -7.23413         3.34516
   H       19.36052        -8.94737         4.33453
   H       16.13875       -12.61412         4.63385
   H       14.28432       -14.07710         4.50456
   H       12.51268       -11.61332         4.10840
   H        7.53964       -13.46776         4.09688
   H        8.40504       -18.90235         3.34525
   H        4.55286       -17.20463         4.04144
   H        5.55326       -14.93653         4.17262
   H       10.38664       -17.47286         3.24441
*
