# ORCA input file
# SCF done       -248.778807941473          0.000788071964
! CAM-B3LYP def2-SVP def2/J RIJCOSX Grid4 TightSCF
%maxcore 5000
%tddft
    Mode sTDDFT
    Ethresh 5.0
    maxcore 5000
end

%pal
  nprocs 6
  end
* xyz 0 1
   C       21.45009         0.38818         0.68226
   C       22.66176        -0.06952         1.11959
   F       23.59372         0.81115         1.53001
   C       22.97993        -1.43348         1.16053
   C       22.04539        -2.34266         0.74882
   C       20.77965        -1.92627         0.28862
   C       20.47673        -0.53409         0.25189
   C       19.21790        -0.09095        -0.21843
   C       18.29575        -1.01233        -0.63215
   C       18.59648        -2.40387        -0.57477
   C       19.80499        -2.85855        -0.13404
   C       17.42413        -3.17396        -1.03694
   O       17.32562        -4.37422        -1.16451
   C       16.35687        -2.16440        -1.25493
   C       16.95832        -0.85546        -1.19984
   C       16.49732         0.27512        -1.82888
   C       15.34928         0.28360        -2.64507
   N       14.44749         0.30572        -3.35581
   C       17.17192         1.51035        -1.81631
   N       17.67250         2.54389        -1.81777
   C       15.06067        -2.58341        -1.38316
   C       13.86264        -1.88838        -1.15911
   S       13.76563        -0.40970        -0.24380
   C       12.05139        -0.33461        -0.35628
   C       11.54228        -1.43738        -1.05712
   C       12.57204        -2.32689        -1.50694
   C       12.24724        -3.50020        -2.22114
   C       10.92423        -3.76851        -2.41749
   C       10.26999        -4.91808        -3.08308
   O       10.76375        -5.86897        -3.63430
   N        8.90642        -4.69363        -2.95358
   C        7.90213        -5.61588        -3.43733
   C        7.52630        -6.63205        -2.36436
   C        8.59973        -3.52547        -2.27073
   O        7.48336        -3.13129        -2.04055
   C        9.90186        -2.91687        -1.92502
   C       10.18069        -1.76491        -1.25109
   C       11.32163         0.74165         0.25901
   C       11.73677         1.24527         1.47137
   C       10.94608         2.19117         2.15380
   C       11.05906         2.76620         3.41230
   C       12.17824         2.84362         4.39704
   C       13.34349         1.87452         4.19236
   N       12.90136         0.48616         4.21211
   C       12.75413         4.28602         4.40783
   N       13.66581         4.45038         5.51841
   C        9.82515         3.49585         3.63636
   C        9.32463         4.06227         4.74753
   C        7.99053         4.72762         4.76216
   C        7.31093         4.78459         3.42393
   C        7.79463         4.14856         2.34247
   C        9.02209         3.44419         2.40969
   C        9.69416         2.62375         1.53062
   C        9.36135         2.17532         0.23058
   C       10.15029         1.26337        -0.38683
   C        8.06927         6.09579         5.38062
   C        9.21450         6.78488         5.44679
   C        9.41859         8.00735         6.14988
   S        8.14537         8.91299         6.86918
   C        9.24368         9.95046         7.72760
   C       10.56988         9.65924         7.38016
   C       10.66955         8.53825         6.49212
   C       11.93384         8.03094         6.12213
   C       13.03364         8.64580         6.64025
   C       14.46683         8.31873         6.49174
   O       14.97647         7.40442         5.88909
   N       15.14752         9.29185         7.20240
   C       16.58613         9.30016         7.36597
   C       17.00212         8.49890         8.59446
   C       14.31092        10.21959         7.80839
   O       14.67481        11.15082         8.48061
   C       12.93544         9.80434         7.45219
   C       11.73314        10.34145         7.80437
   C        8.73212        10.86596         8.67262
   C        9.31903        11.32521         9.81512
   C        8.77222        12.54593        10.47313
   O        7.72221        13.09001        10.21936
   C        9.80364        12.95787        11.44261
   C        9.84639        14.07038        12.23234
   C       10.96046        14.27324        13.07757
   C       12.02030        13.31945        13.07841
   C       13.13069        13.53151        13.91806
   C       13.16571        14.64096        14.71654
   C       12.13323        15.58887        14.73176
   C       11.04958        15.40048        13.91964
   F       14.22212        14.84318        15.52324
   C       11.94772        12.17301        12.25338
   C       10.85023        11.98992        11.45658
   C       10.48500        10.89932        10.55842
   C       11.02305         9.63700        10.59506
   C       10.47083         8.51904         9.94267
   N       10.04020         7.56142         9.47642
   C       12.15376         9.27973        11.35695
   N       13.08541         8.92550        11.92667
   H       21.24119         1.44635         0.66047
   H       23.95266        -1.73573         1.51478
   H       22.26696        -3.39912         0.77106
   H       19.01143         0.96768        -0.23180
   H       20.01743        -3.91686        -0.10904
   H       14.95451        -3.64191        -1.60166
   H       13.01103        -4.16590        -2.58946
   H        8.31801        -6.12132        -4.31210
   H        7.02792        -5.02718        -3.72581
   H        8.40109        -7.20691        -2.06899
   H        6.77350        -7.31355        -2.75004
   H        7.12442        -6.12346        -1.49093
   H        9.39182        -1.14531        -0.85702
   H       12.60141         0.82305         1.95367
   H       11.76007         2.66000         5.39653
   H       14.08406         2.10875         4.97217
   H       13.81479         2.06914         3.22510
   H       12.41907         0.28816         5.08296
   H       13.70560        -0.13105         4.16440
   H       11.90936         4.99746         4.41473
   H       13.31125         4.44477         3.48133
   H       13.16425         4.49037         6.39934
   H       14.21706         5.29755         5.43034
   H        9.84771         4.03390         5.69414
   H        7.34566         4.12493         5.42548
   H        6.38793         5.34169         3.38512
   H        7.25582         4.17249         1.40661
   H        8.47635         2.56024        -0.25356
   H        9.93101         0.93710        -1.39128
   H        7.15700         6.50102         5.79546
   H       10.10275         6.36034         4.99954
   H       12.03380         7.18631         5.46031
   H       16.89624        10.34280         7.46754
   H       17.02019         8.86743         6.46156
   H       16.54745         8.91847         9.48897
   H       18.08231         8.52888         8.70330
   H       16.68905         7.46240         8.49160
   H       11.67387        11.25258         8.37781
   H        7.74498        11.27167         8.47070
   H        9.03934        14.78734        12.21393
   H       13.94251        12.82134        13.93275
   H       12.21633        16.44492        15.38238
   H       10.24241        16.11737        13.91360
   H       12.76845        11.47356        12.26291
*
