# ORCA input file
# SCF done       -211.946040598888          0.000651003794
! CAM-B3LYP def2-SVP def2/J RIJCOSX Grid4 TightSCF
%maxcore 5000
%tddft
    Mode sTDDFT
    Ethresh 5.0
    maxcore 5000
end

%pal
  nprocs 6
  end
* xyz 0 1
   C        5.17110        -0.34844        -0.24896
   C        5.14912        -0.09630        -1.58399
   C        5.45708         1.15528        -2.16075
   N        5.74608         2.15243        -2.64677
   C        4.93782        -1.14277        -2.52305
   N        4.85267        -2.00676        -3.27070
   C        5.43060         0.55077         0.84329
   C        5.34748        -0.15729         2.07942
   C        5.57562         0.46236         3.28007
   C        5.89561         1.83469         3.29863
   C        5.97249         2.55140         2.06677
   C        5.73643         1.89118         0.84377
   C        6.29461         3.92498         2.10182
   C        6.53038         4.55902         3.29010
   C        6.45597         3.85233         4.50139
   C        6.14511         2.52069         4.50539
   C        5.02881        -1.55970         1.84602
   O        4.95282        -2.46766         2.63309
   C        4.79806        -1.70912         0.30429
   C        3.33138        -2.03076         0.16521
   C        2.43838        -1.36252        -0.60359
   N        2.78599        -0.43320        -1.56598
   C        1.68129        -0.01736        -2.12275
   C        0.49235        -0.60785        -1.50650
   C       -0.72987        -0.06868        -2.14909
   O       -1.89072        -0.29193        -1.85370
   C       -0.20116         0.81319        -3.18089
   C        1.25890         0.84925        -3.14129
   N        1.74663         1.66229        -4.07848
   C        0.67784         2.14091        -4.72067
   C       -0.55534         1.64514        -4.21847
   C        0.94689        -1.47822        -0.53994
   C        0.19022        -2.21968         0.40591
   C       -1.13985        -1.97554         0.57498
   C       -2.00379        -2.57589         1.51291
   S       -3.57622        -1.89074         1.77273
   C       -3.98688        -3.01512         2.99937
   C       -2.97124        -3.90871         3.22291
   C       -1.84139        -3.68683         2.35498
   N       -0.84357        -4.57007         2.31355
   C       -0.88368        -5.59607         3.13314
   C       -1.89570        -5.68156         4.17078
   N       -1.80519        -6.59583         5.17986
   C       -2.74136        -6.53055         6.27914
   N       -2.92962        -4.87998         4.16338
   N        0.09102        -6.56538         2.92016
   C       -0.17049        -7.96265         3.20342
   C        1.19994        -6.20732         2.26305
   C        2.20437        -7.04986         1.85514
   C        3.27795        -6.54938         1.12098
   N        3.45478        -5.21202         0.93053
   C        4.62613        -5.08321         0.34126
   C        5.27430        -6.37056         0.10526
   C        6.59388        -6.19084        -0.52262
   O        7.39161        -7.03378        -0.86022
   C        6.69641        -4.71721        -0.60488
   C        5.52081        -4.09027        -0.10874
   N        5.68653        -2.75101        -0.18446
   C        6.93289        -2.51837        -0.68463
   C        7.57960        -3.70734        -0.97075
   C        4.40162        -7.33036         0.56322
   C        4.54875        -8.74098         0.48296
   C        3.51311        -9.62079         0.48994
   C        3.67905       -11.02205         0.44054
   C        2.64335       -11.90566         0.58155
   C        2.70424       -13.35068         0.45425
   C        3.83189       -14.12569         0.38451
   C        3.81656       -15.53246         0.27886
   N        3.87171       -16.67622         0.19624
   C        5.15792       -13.64869         0.45588
   N        6.26179       -13.34057         0.52702
   C        1.33377       -13.85197         0.45839
   C        0.45185       -12.76027         0.70248
   C        1.23565       -11.52547         0.84813
   O        0.80290       -10.42930         1.16455
   C       -0.90211       -12.92672         0.76541
   C       -1.44799       -14.21507         0.57227
   C       -0.57298       -15.31119         0.32194
   C        0.82570       -15.10946         0.27000
   C       -1.12808       -16.59188         0.12653
   C       -2.48239       -16.78268         0.17442
   C       -3.34318       -15.70257         0.41977
   C       -2.83698       -14.44617         0.61509
   H        5.51184        -0.09537         4.20277
   H        5.80045         2.45189        -0.07530
   H        6.35111         4.46425         1.16792
   H        6.77638         5.61016         3.30566
   H        6.64636         4.37005         5.42948
   H        6.08645         1.97104         5.43352
   H        2.99467        -2.83080         0.80933
   H        0.80818         2.83895        -5.52835
   H       -1.53297         1.89394        -4.58134
   H        0.69815        -2.94381         1.02545
   H       -1.60716        -1.21812        -0.04249
   H       -4.93585        -2.96250         3.49237
   H       -0.87798        -6.90832         5.42318
   H       -3.73653        -6.37828         5.86846
   H       -2.52164        -5.70362         6.96043
   H       -2.70441        -7.47066         6.82550
   H       -1.21493        -8.09968         3.46960
   H        0.46477        -8.32438         4.01496
   H        0.04007        -8.56418         2.31700
   H        1.28236        -5.15881         2.01957
   H        2.18449        -8.09911         2.09392
   H        7.30966        -1.52090        -0.80362
   H        8.56359        -3.80923        -1.38156
   H        5.56327        -9.10451         0.36998
   H        2.49950        -9.25438         0.50766
   H        4.68000       -11.39687         0.27178
   H       -1.55136       -12.08383         0.95197
   H        1.46014       -15.95899         0.07403
   H       -0.46140       -17.42042        -0.06209
   H       -2.89790       -17.76748         0.02261
   H       -4.40923       -15.87075         0.45249
   H       -3.49526       -13.61047         0.80337
*
