# ORCA input file
# SCF done       -171.096231549529          0.000284833719
! CAM-B3LYP def2-SVP def2/J RIJCOSX Grid4 TightSCF
%maxcore 5000
%tddft
    Mode sTDDFT
    Ethresh 5.0
    maxcore 5000
end

%pal
  nprocs 6
  end
* xyz 0 1
   C      -12.87490         1.00762        -8.93458
   O      -12.64700         0.10064        -9.89497
   C      -13.28201        -1.02934        -9.53351
   C      -13.92000        -0.86402        -8.34907
   C      -13.66213         0.48104        -7.93473
   C      -14.14084         1.09042        -6.73042
   C      -13.86257         2.36175        -6.34750
   C      -14.29631         3.00788        -5.16285
   C      -15.11957         2.47350        -4.20533
   C      -15.53595         3.07559        -3.01231
   C      -15.21943         4.31135        -2.47352
   C      -15.68047         4.77921        -1.22610
   C      -15.21494         6.01890        -0.87197
   C      -14.36856         6.59618        -1.82632
   S      -14.17974         5.52533        -3.19279
   C      -13.70898         7.82566        -1.76641
   C      -13.69317         8.74822        -0.71715
   C      -12.89879         9.84734        -0.95998
   C      -12.27426         9.83643        -2.20825
   S      -12.71371         8.38962        -3.08656
   C      -11.39671        10.79576        -2.72512
   C      -10.86389        10.76300        -3.98567
   C       -9.93789        11.68245        -4.49101
   C       -9.41083        11.71801        -5.78204
   C       -8.48409        12.71857        -5.98437
   C       -8.24444        13.49745        -4.85168
   S       -9.23834        12.95908        -3.52158
   C       -7.32676        14.54376        -4.70014
   C       -6.46173        15.06767        -5.66576
   C       -5.63458        16.05343        -5.18468
   C       -5.81577        16.33810        -3.82231
   S       -7.08973        15.33977        -3.16537
   C       -5.07155        17.23905        -3.07228
   C       -5.25947        17.47645        -1.71133
   C       -4.45327        18.30407        -0.91963
   O       -4.69402        18.47259         0.43064
   C       -5.73438        17.77593         0.95351
   C       -6.55191        16.92910         0.15128
   C       -7.53753        16.32032         0.85538
   S       -7.48325        16.77537         2.51758
   C       -6.11754        17.79430         2.25589
   O       -6.33123        16.78312        -1.17931
   C       -3.32639        19.00522        -1.39669
   C       -2.48778        19.71472        -0.58561
   C       -1.31313        20.41886        -0.98024
   C       -0.48687        20.94038         0.00270
   C        0.70038        21.60522        -0.33644
   C        1.69064        22.17968         0.45362
   C        1.70866        22.22446         1.94601
   C        2.92170        21.47263         2.52344
   N        2.62283        21.03723         3.87528
   C        1.63358        23.67603         2.45076
   N        1.41476        23.71531         3.89044
   C        2.68372        22.71304        -0.44385
   C        3.84894        23.35606        -0.22579
   C        4.70027        23.84954        -1.34499
   C        4.21297        23.47747        -2.70919
   C        3.05420        22.82854        -2.91608
   C        2.24714        22.43179        -1.82096
   C        1.04713        21.76106        -1.74366
   C        0.17637        21.24321        -2.73294
   C       -0.95369        20.59596        -2.36164
   C        4.76265        25.36036        -1.24829
   C        5.86593        26.04994        -1.03383
   H      -12.43624         1.97618        -9.06658
   H      -13.20328        -1.86828       -10.19628
   H      -14.50243        -1.59109        -7.82124
   H      -14.75628         0.45618        -6.10869
   H      -13.23467         2.95531        -6.99872
   H      -13.93030         4.01441        -5.02438
   H      -15.50038         1.47364        -4.36595
   H      -16.19851         2.48477        -2.39035
   H      -16.33933         4.18730        -0.61494
   H      -15.46626         6.51627         0.04765
   H      -14.24502         8.59430         0.19262
   H      -12.75865        10.65503        -0.26308
   H      -11.12982        11.61254        -2.06605
   H      -11.16630         9.96850        -4.65692
   H       -9.71351        11.01490        -6.53807
   H       -7.97679        12.88727        -6.91710
   H       -6.45148        14.71976        -6.68314
   H       -4.89868        16.56836        -5.77687
   H       -4.28823        17.76558        -3.59000
   H       -8.27984        15.64065         0.49364
   H       -5.68156        18.34101         3.06522
   H       -3.12770        18.93823        -2.45215
   H       -2.70731        19.72071         0.47366
   H       -0.75409        20.81135         1.04201
   H        0.82269        21.69923         2.31639
   H        3.81518        22.11519         2.45930
   H        3.10809        20.58067         1.91536
   H        2.40093        21.85562         4.43615
   H        3.42845        20.57616         4.28452
   H        0.84260        24.19574         1.88257
   H        2.57620        24.19103         2.24829
   H        0.51599        23.29769         4.11235
   H        1.39698        24.67630         4.21595
   H        4.20912        23.57644         0.76868
   H        5.72113        23.46693        -1.20668
   H        4.83884        23.78916        -3.53208
   H        2.72783        22.58862        -3.91815
   H        0.42502        21.37007        -3.77699
   H       -1.61752        20.20880        -3.11883
   H        3.80932        25.85357        -1.37887
   H        6.82360        25.57258        -0.90300
   H        5.85972        27.12563        -0.98281
*
