# ORCA input file
# SCF done       -152.448324451739          0.000616376655
! CAM-B3LYP def2-SVP def2/J RIJCOSX Grid4 TightSCF
%maxcore 5000
%tddft
    Mode sTDDFT
    Ethresh 5.0
    maxcore 5000
end

%pal
  nprocs 6
  end
* xyz 0 1
   C        2.22459         1.79605         3.14915
   O        1.81409         0.52817         3.15452
   C        1.43305         0.19857         1.89531
   C        1.60498         1.28483         1.06742
   C        2.12049         2.31719         1.88806
   C        2.46941         3.69222         1.45495
   F        3.12145         4.38096         2.40547
   F        3.25743         3.70564         0.36420
   F        1.38646         4.42713         1.13347
   C        0.97520        -1.13811         1.65738
   C        0.51883        -1.56262         0.46765
   C        0.10571        -2.88837         0.10103
   C       -0.05280        -3.17910        -1.23672
   O        0.10349        -2.29143        -2.23603
   C       -0.06548        -2.77141        -3.54772
   S       -0.43478        -4.84359        -1.52757
   C       -0.40953        -5.16153         0.18913
   O       -0.73738        -6.36908         0.68644
   C       -0.68251        -7.45709        -0.20302
   C       -0.10634        -4.05225         0.92311
   C       -0.07808        -4.11815         2.38441
   C       -0.78456        -3.27260         3.18933
   O       -1.59181        -2.27957         2.76668
   C       -1.93116        -1.29797         3.71802
   S       -0.60029        -3.67007         4.87874
   C        0.42903        -5.01537         4.47568
   O        0.97453        -5.81521         5.40839
   C        0.87262        -5.38453         6.74453
   C        0.60927        -5.13478         3.12860
   C        1.40060        -6.20323         2.53159
   C        1.25339        -7.51044         2.88361
   O        0.35398        -8.00352         3.74873
   C        0.73654        -9.16088         4.45942
   S        2.26408        -8.56467         1.90969
   C        2.88994        -7.19913         1.03323
   O        3.80888        -7.31348         0.05975
   C        4.40211        -8.57984        -0.11007
   C        2.35475        -6.02184         1.47651
   C        2.79257        -4.72872         0.98629
   O        2.78701        -4.46732        -0.32575
   C        3.25204        -3.20743        -0.51415
   C        3.58406        -2.65442         0.69638
   C        3.29358        -3.64001         1.66879
   C        3.59439        -3.54013         3.11690
   F        2.60340        -2.99827         3.85627
   F        3.86065        -4.72943         3.68230
   F        4.66910        -2.76521         3.34784
   C        3.30769        -2.69971        -1.86038
   C        3.56309        -1.43593        -2.18160
   H        2.56899         2.22631         4.06796
   H        1.40256         1.34740         0.01939
   H        1.04309        -1.79612         2.50642
   H        0.49143        -0.86469        -0.35780
   H        0.65959        -3.55906        -3.77592
   H        0.09577        -1.91944        -4.20467
   H       -1.07524        -3.16899        -3.69476
   H       -1.43619        -7.35757        -0.99246
   H       -0.88977        -8.34405         0.39211
   H        0.30632        -7.54188        -0.66620
   H       -1.03744        -0.81856         4.12930
   H       -2.51128        -1.73368         4.53914
   H       -2.53458        -0.56239         3.19046
   H        1.34495        -4.40632         6.88082
   H        1.38950        -6.13065         7.34464
   H       -0.17592        -5.31907         7.05616
   H        0.91572        -9.99801         3.77465
   H       -0.09505        -9.39847         5.11925
   H        1.63906        -8.97882         5.05027
   H        5.10952        -8.47375        -0.92968
   H        3.64883        -9.33392        -0.36253
   H        4.92714        -8.89435         0.79699
   H        3.99600        -1.68485         0.88113
   H        3.10990        -3.43994        -2.62370
   H        3.74872        -0.68785        -1.43137
   H        3.59126        -1.11319        -3.20683
*
