# ORCA input file
# SCF done       -155.432503121214          0.000495733347
! CAM-B3LYP def2-SVP def2/J RIJCOSX Grid4 TightSCF
%maxcore 5000
%tddft
    Mode sTDDFT
    Ethresh 5.0
    maxcore 5000
end

%pal
  nprocs 6
  end
* xyz 0 1
   C       -0.16463         0.73798         0.12287
   O       -0.37996        -0.57431         0.26589
   C       -0.19646        -1.16343        -0.94276
   C        0.14070        -0.20936        -1.87360
   C        0.16205         1.02271        -1.17273
   C        0.45982         2.35858        -1.74418
   F        0.71544         3.27596        -0.79611
   F        1.52418         2.34679        -2.56383
   F       -0.56219         2.85037        -2.47367
   C       -0.35207        -2.57960        -1.09253
   C       -0.68528        -3.37071        -0.05360
   N       -0.89555        -4.71512        -0.07339
   C       -0.99482        -5.45435         1.09671
   C       -0.68858        -5.03180         2.35860
   S       -0.89074        -6.27127         3.52997
   C       -1.38692        -7.38993         2.32244
   C       -1.40503        -6.83193         1.08033
   N       -1.72911        -7.44695        -0.12593
   C       -2.04256        -6.52637        -1.20304
   C       -0.94156        -5.47459        -1.30388
   C       -2.06682        -8.77242        -0.21249
   O       -2.66982        -9.36949         0.83274
   C       -2.87997       -10.68151         0.51625
   C       -2.42304       -10.92068        -0.75199
   C       -1.88550        -9.69192        -1.22502
   C       -1.22072        -9.50177        -2.53149
   F       -0.17567        -8.64908        -2.47113
   F       -0.75180       -10.64568        -3.03861
   F       -2.03941        -8.98376        -3.48335
   C       -3.46926       -11.55153         1.48801
   C       -3.85270       -11.09189         2.69579
   N       -4.44036       -11.79336         3.70460
   C       -4.57500       -11.25888         4.97763
   C       -3.99402       -10.11626         5.45007
   S       -4.37058        -9.82480         7.10018
   C       -5.32142       -11.25287         7.18100
   C       -5.34917       -11.91891         5.99374
   N       -5.99570       -13.11963         5.69931
   C       -6.21030       -13.33960         4.28176
   C       -4.89272       -13.15627         3.53368
   C       -6.58111       -13.91132         6.64424
   O       -7.06843       -13.35333         7.76201
   C       -7.58845       -14.34295         8.54733
   C       -7.43858       -15.54650         7.91628
   C       -6.77930       -15.28182         6.68743
   C       -6.34408       -16.32159         5.72976
   F       -5.14005       -16.05787         5.17714
   F       -6.24594       -17.52539         6.30011
   F       -7.18620       -16.47888         4.67682
   C       -8.16475       -14.02374         9.82588
   C       -8.26653       -12.79280        10.31976
   H       -0.26233         1.36578         0.98544
   H        0.35134        -0.35653        -2.91172
   H       -0.17057        -2.95379        -2.08614
   H       -0.82171        -2.91323         0.91456
   H       -0.33747        -4.07377         2.68036
   H       -1.61440        -8.39536         2.60478
   H       -3.00095        -6.02787        -0.99772
   H       -2.13270        -7.06549        -2.14230
   H       -1.16462        -4.80154        -2.13081
   H        0.01816        -5.97088        -1.49164
   H       -2.44033       -11.84592        -1.28806
   H       -3.56317       -12.58052         1.18493
   H       -3.70323       -10.04586         2.91496
   H       -3.35060        -9.42661         4.94508
   H       -5.78877       -11.51635         8.10519
   H       -6.93921       -12.60614         3.90947
   H       -6.61031       -14.33351         4.10654
   H       -5.05242       -13.34818         2.47314
   H       -4.15121       -13.86626         3.91928
   H       -7.73804       -16.51009         8.27242
   H       -8.52573       -14.88044        10.37621
   H       -7.91621       -11.93570         9.77062
   H       -8.70613       -12.60742        11.28297
*
