# ORCA input file
# SCF done       -306.302895874715          0.000212582185
! CAM-B3LYP def2-SVP def2/J RIJCOSX Grid4 TightSCF
%maxcore 5000
%tddft
    Mode sTDDFT
    Ethresh 5.0
    maxcore 5000
end

%pal
  nprocs 6
  end
* xyz 0 1
   C        8.41272        10.50888        -9.45563
   C        7.92550        11.78199        -9.55794
   F        7.25719        12.14795       -10.66743
   C        8.09343        12.73486        -8.54420
   C        8.76888        12.38075        -7.40944
   C        9.29220        11.08129        -7.25085
   C        9.11302        10.12754        -8.29464
   C        9.63871         8.82082        -8.16392
   C       10.31698         8.48082        -7.02505
   C       10.47515         9.43240        -5.97714
   C        9.98596        10.70221        -6.07962
   C       11.19162         8.80066        -4.85231
   O       11.53902         9.31241        -3.81243
   C       11.34587         7.37042        -5.23761
   C       10.99638         7.24589        -6.63627
   C       11.41424         6.28013        -7.51805
   C       12.32609         5.25737        -7.18736
   N       13.09856         4.43486        -6.97736
   C       11.02436         6.22003        -8.86957
   N       10.70578         6.09618        -9.96630
   C       11.63069         6.46815        -4.25351
   C       11.46750         5.06610        -4.25454
   C       10.76735         4.28577        -5.14137
   C       10.81669         2.91030        -4.85948
   C       11.55932         2.63051        -3.68244
   S       12.16361         4.09735        -2.96150
   C       11.81276         1.33960        -3.24859
   C       12.61130         1.06697        -2.04644
   C       12.31335         1.69597        -0.84058
   C       13.06452         1.43716         0.28852
   C       14.13585         0.55203         0.24793
   C       14.43718        -0.06561        -0.95942
   C       13.68742         0.18502        -2.09245
   C       14.95671         0.29463         1.47388
   C       11.28794         0.29837        -4.03599
   C       10.57842         0.58335        -5.23376
   C       10.32675         1.86848        -5.67135
   C        9.71415         2.19721        -6.96424
   C        8.64083         3.07952        -7.05391
   C        8.18584         3.50451        -8.28671
   C        8.78950         3.06816        -9.46053
   C        9.82988         2.15135        -9.36628
   C       10.28614         1.71576        -8.13821
   C        8.36501         3.60948       -10.78785
   S       10.05863        -0.87880        -6.03015
   C       10.76517        -1.85265        -4.75996
   C       11.36416        -1.09312        -3.79398
   C       10.69480        -3.27840        -4.80412
   C       11.40154        -4.15609        -4.03300
   C       11.11098        -5.51418        -4.30833
   C       10.14666        -5.65117        -5.33827
   S        9.62425        -4.09301        -5.92500
   C        9.72657        -6.87867        -5.82641
   C        8.74268        -6.98892        -6.91092
   C        9.01189        -7.76665        -8.03441
   C        8.08871        -7.86413        -9.05649
   C        6.87269        -7.19418        -8.98796
   C        6.60929        -6.41601        -7.86753
   C        7.52980        -6.30989        -6.84319
   C        5.88332        -7.28944       -10.10816
   C       10.30613        -8.01727        -5.24150
   C       11.28492        -7.87797        -4.22480
   C       11.69541        -6.65252        -3.72741
   C       12.67660        -6.53913        -2.64029
   C       13.90103        -7.19762        -2.71229
   C       14.81779        -7.08482        -1.68622
   C       14.54090        -6.31917        -0.55915
   C       13.31497        -5.67035        -0.48646
   C       12.39383        -5.77600        -1.51089
   C       15.53796        -6.21864         0.55410
   S       11.84119        -9.43299        -3.66109
   C       10.74421       -10.25191        -4.75811
   C       10.01286        -9.37831        -5.50732
   C       10.70751       -11.67600        -4.78784
   C       11.51128       -12.53758        -4.09926
   C       11.22621       -13.90157        -4.34567
   C       10.13014       -14.05841        -5.23503
   S        9.53464       -12.51193        -5.78636
   C        9.63966       -15.29220        -5.61960
   C        8.55976       -15.44970        -6.60079
   C        8.73779       -16.28347        -7.70315
   C        7.72501       -16.45300        -8.62639
   C        6.50861       -15.79704        -8.47729
   C        6.33973       -14.95462        -7.38419
   C        7.34907       -14.77815        -6.45786
   C        5.41577       -15.97366        -9.48517
   C       10.25908       -16.41841        -5.04030
   C       11.36137       -16.26308        -4.15781
   C       11.88052       -15.02574        -3.81343
   C       13.06487       -14.88590        -2.95580
   C       14.14482       -14.11052        -3.37086
   C       15.26465       -13.98580        -2.57314
   C       15.33934       -14.62452        -1.34069
   C       14.26082       -15.39848        -0.93113
   C       13.13895       -15.53259        -1.72610
   C       16.56543       -14.50065        -0.48979
   S       11.95520       -17.80677        -3.61798
   C       10.72772       -18.65014        -4.54974
   C        9.91416       -17.77020        -5.22372
   C       10.63418       -20.05644        -4.44231
   C        9.91781       -20.93551        -5.19948
   C        9.59199       -22.27289        -4.63251
   O       10.09397       -22.79194        -3.66197
   C        8.49120       -22.79020        -5.46990
   C        7.74875       -23.92385        -5.30958
   C        6.71055       -24.20353        -6.22670
   C        6.45819       -23.29411        -7.29486
   C        5.41540       -23.57476        -8.19894
   C        4.67318       -24.71113        -8.03596
   C        4.90759       -25.61917        -6.99467
   C        5.91467       -25.36102        -6.10673
   F        3.67661       -24.98052        -8.89949
   C        7.25069       -22.13171        -7.44264
   C        8.25568       -21.88771        -6.54683
   C        9.24354       -20.81464        -6.47198
   C        9.62108       -20.01594        -7.52125
   C       10.78209       -19.21781        -7.49808
   N       11.74144       -18.58869        -7.53836
   C        8.93934       -19.94950        -8.75067
   N        8.39906       -19.82227        -9.75619
   H        8.26814         9.80258       -10.25822
   H        7.68708        13.72439        -8.68102
   H        8.91083        13.09716        -6.61434
   H        9.48284         8.11772        -8.96673
   H       10.12598        11.41010        -5.27651
   H       11.96203         6.90951        -3.31839
   H       10.20168         4.68657        -5.96154
   H       11.47532         2.37510        -0.78547
   H       12.81575         1.92805         1.21845
   H       15.27180        -0.75027        -1.01484
   H       13.95061        -0.28602        -3.02845
   H       14.32384         0.23213         2.35685
   H       15.66212         1.11195         1.62666
   H       15.52303        -0.62856         1.37768
   H        8.15795         3.42512        -6.15001
   H        7.35836         4.19831        -8.33936
   H       10.30240         1.79002       -10.26786
   H       11.11795         1.02967        -8.08173
   H        7.32067         3.91256       -10.77364
   H        8.51405         2.87510       -11.57561
   H        8.97198         4.48549       -11.02199
   H       11.82442        -1.51245        -2.91840
   H       12.13516        -3.84785        -3.31103
   H        9.96034        -8.27805        -8.11382
   H        8.31514        -8.46927        -9.92289
   H        5.66947        -5.88765        -7.79476
   H        7.29884        -5.71378        -5.97264
   H        5.93897        -8.26128       -10.59347
   H        6.09740        -6.52660       -10.85763
   H        4.86999        -7.13070        -9.74681
   H       14.14163        -7.78283        -3.58743
   H       15.76676        -7.59644        -1.76031
   H       13.07621        -5.07554         0.38403
   H       11.43645        -5.28168        -1.42820
   H       16.54153        -6.06946         0.16021
   H       15.54227        -7.14132         1.13497
   H       15.29505        -5.39637         1.22262
   H        9.27518        -9.70194        -6.22011
   H       12.27836       -12.20127        -3.42447
   H        9.68830       -16.77609        -7.84730
   H        7.88044       -17.10756        -9.47210
   H        5.40178       -14.43376        -7.25408
   H        7.19162       -14.13529        -5.60425
   H        5.52587       -16.91790       -10.01259
   H        5.45601       -15.16892       -10.22001
   H        4.43832       -15.94253        -9.00846
   H       14.11151       -13.62385        -4.33481
   H       16.09628       -13.38459        -2.91227
   H       14.29861       -15.90190         0.02423
   H       12.30415       -16.12509        -1.38197
   H       17.02396       -13.52162        -0.61026
   H       17.29812       -15.25297        -0.78404
   H       16.32796       -14.65446         0.56015
   H        9.04870       -18.07539        -5.78463
   H       11.13478       -20.49816        -3.58592
   H        7.94972       -24.60012        -4.49229
   H        5.20887       -22.89992        -9.01491
   H        4.28977       -26.49963        -6.91652
   H        6.11432       -26.04531        -5.29589
   H        7.03608       -21.45682        -8.25639
*
