# ORCA input file
# SCF done       -217.941794565694          0.000977243014
! CAM-B3LYP def2-SVP def2/J RIJCOSX Grid4 TightSCF
%maxcore 5000
%tddft
    Mode sTDDFT
    Ethresh 5.0
    maxcore 5000
end

%pal
  nprocs 6
  end
* xyz 0 1
   C        3.29572        -5.09562         9.42401
   C        2.42941        -4.85137        10.45309
   F        2.35456        -5.72106        11.47555
   C        1.60552        -3.71762        10.48945
   C        1.66885        -2.82042         9.46013
   C        2.54612        -3.02134         8.37438
   C        3.37339        -4.18262         8.35426
   C        4.25526        -4.41053         7.27257
   C        4.30971        -3.50342         6.24853
   C        3.49490        -2.33443         6.28410
   C        2.62824        -2.09463         7.31179
   C        3.78068        -1.50306         5.10132
   O        3.24999        -0.47118         4.76453
   C        4.93127        -2.17314         4.42356
   C        5.09041        -3.48984         5.01487
   C        5.66123        -4.58558         4.42645
   C        6.20770        -4.58694         3.12613
   N        6.62492        -4.65605         2.05939
   C        5.70040        -5.86297         5.02374
   N        5.76830        -6.91547         5.47577
   C        5.66629        -1.47650         3.52498
   C        6.97507        -1.77734         3.02598
   C        7.40512        -1.35443         1.75536
   N        8.59748        -1.61381         1.28355
   C        9.42007        -2.33380         2.05379
   N        9.14187        -2.72276         3.30406
   C        7.96017        -2.43544         3.78259
   C       10.70072        -2.69392         1.53588
   C       11.27408        -2.32693         0.33454
   C       12.54925        -2.87132         0.19209
   C       12.92454        -3.66664         1.29524
   S       11.72656        -3.72744         2.50355
   C       14.22809        -4.17505         1.05843
   C       14.68125        -3.69184        -0.17939
   C       13.64143        -2.85760        -0.76575
   C       13.69768        -2.19667        -1.95782
   C       14.83333        -2.25518        -2.79299
   N       15.76202        -2.30110        -3.46441
   C       12.63339        -1.40259        -2.43543
   N       11.77901        -0.75160        -2.83609
   C       15.96646        -4.13095        -0.49732
   C       16.48837        -4.94933         0.48785
   S       15.37789        -5.17958         1.82308
   C       17.76925        -5.57025         0.49471
   C       18.81015        -5.32118        -0.35562
   C       19.95641        -6.10747        -0.09550
   C       21.18979        -6.09900        -0.78036
   C       21.43141        -5.26233        -1.93780
   C       22.57847        -4.59698        -2.26665
   C       22.47624        -3.90158        -3.49052
   C       21.27070        -4.03313        -4.11736
   S       20.22246        -5.03540        -3.17512
   C       20.81980        -3.45063        -5.40548
  Cl       23.77399        -2.96497        -4.12421
   C       22.17480        -6.94930        -0.28781
   C       21.97575        -7.81824         0.81346
   C       20.73232        -7.84911         1.47627
   C       19.76432        -6.96577         1.01634
   S       18.16394        -6.79561         1.68003
   C       20.48708        -8.77349         2.56506
   C       20.84567       -10.08818         2.64669
   C       20.44404       -10.68737         3.86050
   C       19.78569        -9.85002         4.71294
   S       19.64396        -8.27549         4.00652
   C       19.23716       -10.13662         6.06222
  Cl       20.76683       -12.34197         4.21698
   C       23.13799        -8.56728         1.11319
   C       24.18149        -8.32196         0.26760
   S       23.77901        -7.12610        -0.94718
   C       25.47682        -8.90951         0.29292
   C       26.54570        -8.63508        -0.53411
   C       27.66346        -9.41233        -0.21733
   C       27.43522       -10.28295         0.85493
   S       25.85368       -10.14882         1.48040
   C       28.62617       -11.02915         1.09368
   C       29.59799       -10.62467         0.17249
   C       29.03330        -9.59469        -0.68146
   C       29.65062        -8.93044        -1.70015
   C       30.98959        -9.18742        -2.06263
   N       32.07754        -9.39340        -2.36075
   C       28.99357        -7.93869        -2.45879
   N       28.46542        -7.13116        -3.07819
   C       30.81359       -11.31661         0.33530
   C       30.73927       -12.21419         1.35657
   S       29.19761       -12.24405         2.14695
   H        3.91205        -5.98101         9.42734
   H        0.94137        -3.57826        11.32760
   H        1.04460        -1.93967         9.46584
   H        4.87582        -5.29261         7.28648
   H        2.01456        -1.20634         7.31492
   H        5.22933        -0.53939         3.19312
   H        6.74160        -0.80575         1.09940
   H        7.79018        -2.69381         4.82136
   H       10.76829        -1.69462        -0.37176
   H       16.49654        -3.88619        -1.39862
   H       18.76081        -4.57912        -1.12915
   H       23.45636        -4.56211        -1.64900
   H       21.55323        -2.72927        -5.75705
   H       19.85737        -2.95546        -5.28626
   H       20.70486        -4.22930        -6.15983
   H       21.33557       -10.62941         1.85859
   H       19.33289       -11.19754         6.27943
   H       18.18678        -9.85447         6.11608
   H       19.77551        -9.57204         6.82347
   H       23.21136        -9.24790         1.94184
   H       26.49676        -7.90427        -1.32122
   H       31.69299       -11.16477        -0.26330
   H       31.50566       -12.87634         1.70641
*
