# ORCA input file
# SCF done       -185.910986790483          0.000943689010
! CAM-B3LYP def2-SVP def2/J RIJCOSX Grid4 TightSCF
%maxcore 5000
%tddft
    Mode sTDDFT
    Ethresh 5.0
    maxcore 5000
end

%pal
  nprocs 6
  end
* xyz 0 1
   C      -15.37760        -8.44820        -0.90333
   C      -15.81305        -9.42037        -0.01540
   C      -14.96108        -9.94790         0.94454
   C      -13.64941        -9.51049         1.05019
   C      -13.20383        -8.53973         0.16907
   C      -14.06603        -8.00810        -0.81725
   C      -13.33368        -7.02840        -1.60911
   C      -13.85301        -6.25612        -2.61672
   C      -15.19650        -6.30656        -3.03479
   N      -16.27347        -6.29482        -3.43566
   C      -13.13012        -5.29400        -3.35056
   N      -12.59296        -4.49880        -3.98269
   C      -11.95257        -7.07064        -1.15350
   C      -11.91981        -7.86695         0.06457
   C      -10.98431        -7.76266         1.05987
   C       -9.92359        -6.83360         1.02895
   N       -9.08977        -6.04503         1.06010
   C      -11.03113        -8.49063         2.26518
   N      -11.01404        -9.06792         3.25710
   C      -10.89139        -6.53527        -1.82968
   C       -9.53610        -6.92061        -1.77572
   S       -9.03165        -8.53907        -1.33376
   C       -7.41729        -8.18657        -1.76999
   C       -7.24522        -6.90491        -2.20912
   C       -8.45363        -6.17859        -2.22565
   C       -8.51230        -4.73921        -2.59974
   C       -7.31769        -4.35970        -3.48388
   C       -6.03411        -4.80646        -2.77562
   C       -5.95025        -6.32895        -2.68336
   C       -7.46021        -4.90566        -4.89366
   C       -6.43780        -5.16300        -5.69762
   C       -8.83000        -5.06683        -5.40910
   S       -9.71138        -6.55731        -5.20703
   C      -11.05953        -5.91263        -6.06424
   C      -10.84565        -4.63976        -6.47928
   C       -9.55988        -4.15345        -6.10941
   C       -9.05173        -2.80863        -6.53166
   C      -10.16640        -1.89178        -7.04029
   C      -11.09663        -2.68378        -7.97284
   C      -11.82851        -3.78142        -7.20506
   C      -10.97689        -1.21367        -5.95622
   C      -10.94546        -1.56656        -4.67426
   C      -11.84506        -0.14953        -6.44572
   S      -11.31016         0.88754        -7.74621
   C      -12.84140         1.66194        -7.81458
   C      -13.71754         1.16049        -6.90569
   C      -13.14072         0.13903        -6.10052
   C      -13.92260        -0.52582        -5.01481
   C      -15.43441        -0.43734        -5.24765
   C      -15.81317         1.02175        -5.54258
   C      -15.16693         1.52996        -6.82798
   C      -15.91375        -1.38654        -6.32301
   C      -15.15882        -1.82114        -7.33135
   C      -17.32569        -1.74595        -6.27099
   C      -17.83382        -2.97856        -6.48918
   C      -19.21904        -3.28917        -6.85011
   C      -20.32211        -2.52841        -6.58811
   C      -20.29632        -1.31540        -5.86547
   N      -20.33424        -0.32506        -5.28680
   C      -21.63473        -2.87590        -6.97447
   N      -22.72156        -3.10492        -7.26270
   C      -19.18357        -4.56620        -7.54868
   C      -17.87907        -5.10885        -7.46121
   C      -17.57574        -6.32812        -8.04520
   C      -18.57802        -6.99979        -8.72670
   C      -19.85944        -6.47056        -8.81517
   C      -20.17727        -5.25580        -8.22780
   C      -17.07136        -4.22213        -6.64898
   C      -15.95047        -4.54095        -5.93968
   C      -15.18207        -5.70494        -6.12867
   N      -14.49234        -6.60771        -6.29431
   C      -15.53203        -3.73190        -4.86227
   N      -15.25566        -3.14418        -3.91703
   H      -16.05340        -8.05227        -1.64331
   H      -16.83176        -9.77197        -0.07625
   H      -15.32196       -10.70897         1.61936
   H      -12.99314        -9.92945         1.79580
   H      -11.10816        -5.79222        -2.58581
   H       -6.67277        -8.95329        -1.67813
   H       -8.48219        -4.14735        -1.67874
   H       -9.45685        -4.50619        -3.09626
   H       -7.30196        -3.26486        -3.56946
   H       -6.03892        -4.38520        -1.76815
   H       -5.15469        -4.41912        -3.28998
   H       -5.14122        -6.62354        -2.01183
   H       -5.73031        -6.74810        -3.66937
   H       -5.41115        -5.02659        -5.40692
   H       -6.60171        -5.52157        -6.69979
   H      -11.93483        -6.51667        -6.19924
   H       -8.33556        -2.96100        -7.34676
   H       -8.50485        -2.32698        -5.71847
   H       -9.69648        -1.09388        -7.62991
   H      -10.49792        -3.13366        -8.76821
   H      -11.81829        -2.00965        -8.43888
   H      -12.43453        -4.39026        -7.88005
   H      -12.50128        -3.33340        -6.46668
   H      -10.35485        -2.39430        -4.32789
   H      -11.50503        -1.03852        -3.92433
   H      -13.00537         2.43635        -8.53743
   H      -13.70636        -0.02174        -4.06763
   H      -13.61418        -1.56655        -4.89963
   H      -15.93075        -0.73331        -4.31679
   H      -15.47217         1.62845        -4.70124
   H      -16.89708         1.13126        -5.61076
   H      -15.28482         2.61332        -6.90281
   H      -15.67681         1.08821        -7.69159
   H      -14.13052        -1.53425        -7.44295
   H      -15.56103        -2.46061        -8.10134
   H      -18.00880        -0.92008        -6.12202
   H      -16.58176        -6.74147        -7.97825
   H      -18.35926        -7.94766        -9.19428
   H      -20.62375        -7.01372        -9.34964
   H      -21.17766        -4.86214        -8.30546
*
