# ORCA input file
# SCF done       -240.901331568491          0.000503525619
! CAM-B3LYP def2-SVP def2/J RIJCOSX Grid4 TightSCF
%maxcore 5000
%tddft
    Mode sTDDFT
    Ethresh 5.0
    maxcore 5000
end

%pal
  nprocs 6
  end
* xyz 0 1
   C        2.51033         2.35758        -2.89056
   C        1.31438         2.72010        -3.46043
   C        1.04417         2.61588        -4.84041
   N        0.79973         2.56534        -5.96051
   C        0.20142         3.14410        -2.70624
   N       -0.72183         3.47248        -2.10917
   C        3.60189         1.66945        -3.57388
   C        4.44083         1.06563        -2.59193
   C        5.53068         0.32056        -2.93771
   C        5.84467         0.15281        -4.30539
   C        5.02016         0.76739        -5.29154
   C        3.89168         1.52707        -4.90376
   C        5.34818         0.59766        -6.65169
   C        6.43564        -0.14598        -7.02222
   C        7.24589        -0.75182        -6.05063
   C        6.95648        -0.60570        -4.72096
   C        3.93368         1.39743        -1.24984
   O        4.34722         1.02010        -0.17792
   C        2.81341         2.35918        -1.47903
   C        2.32090         3.04705        -0.41269
   C        1.55712         4.23657        -0.34241
   S        0.56566         4.47809         1.06490
   C        0.07213         6.04294         0.51928
   C        0.67995         6.37211        -0.68255
   C        1.51764         5.35412        -1.16904
   C        2.34733         5.52054        -2.39959
   C        2.48757         7.00370        -2.76865
   C        3.31074         7.68867        -1.79824
   N        3.95011         8.22945        -1.02118
   C        1.08372         7.64782        -2.80908
   C        0.24384         6.89922        -3.71930
   N       -0.40422         6.30193        -4.44550
   C        0.47700         7.67167        -1.39872
   C       -0.84337         6.79425         1.31666
   C       -1.10235         8.13569         1.31336
   C       -2.04926         8.53707         2.28556
   C       -2.49203         9.84478         2.57073
   C       -2.09843        10.99801         1.78903
   C       -1.88889        12.27547         2.22585
   C       -1.60369        13.17575         1.17735
   C       -1.59789        12.61304        -0.06585
   S       -1.94210        10.92127         0.05221
   C       -1.36610        13.26565        -1.37865
  Cl       -1.29457        14.84443         1.45794
   C       -3.36725         9.97714         3.64537
   C       -3.83415         8.88167         4.41242
   C       -3.39126         7.57492         4.12353
   C       -2.51066         7.44175         3.05677
   S       -1.77894         5.95280         2.53594
   C       -3.82971         6.43998         4.91024
   C       -3.96243         6.35462         6.26688
   C       -4.43157         5.09176         6.68849
   C       -4.66292         4.20846         5.67392
   S       -4.28604         4.93987         4.15114
   C       -5.15620         2.81065         5.75063
  Cl       -4.69085         4.71926         8.35145
   C       -4.77187         9.27960         5.39678
   C       -5.00892        10.62497         5.41725
   S       -4.07953        11.46677         4.19076
   C       -5.83502        11.40647         6.27779
   S       -5.57145        13.11770         6.31808
   C       -6.83867        13.34205         7.48912
   C       -7.40975        12.12307         7.82735
   C       -6.86038        11.03352         7.13261
   C       -7.33551         9.62604         7.31899
   C       -8.67315         9.56396         8.07325
   C       -9.77479         9.89599         7.19591
   N      -10.65424        10.15261         6.51429
   C       -8.66464        10.53233         9.27653
   C       -7.54685        10.21333        10.13668
   N       -6.64977         9.96569        10.79913
   C       -8.54757        11.98191         8.78496
   C       -7.11285        14.60821         8.05981
   C       -6.80428        15.83796         7.56953
   C       -6.70051        17.00137         8.49366
   O       -7.12085        17.06586         9.62585
   C       -5.92056        18.00947         7.74921
   C       -5.42248        19.20430         8.18304
   C       -4.66277        19.99805         7.29459
   C       -4.42803        19.53394         5.96698
   C       -3.65994        20.32603         5.09162
   C       -3.16113        21.52080         5.53045
   C       -3.38321        21.99607         6.83025
   C       -4.12493        21.23899         7.69370
   F       -2.42779        22.27910         4.69578
   C       -4.96490        18.29707         5.54034
   C       -5.70411        17.55077         6.41683
   C       -6.39556        16.27719         6.25107
   C       -6.82189        15.74888         5.06179
   C       -7.73553        14.67601         4.99325
   N       -8.51461        13.83630         4.92161
   C       -6.47047        16.27015         3.80096
   N       -6.19736        16.65215         2.75378
   H        6.14687        -0.13560        -2.17726
   H        3.28825         1.98574        -5.67156
   H        4.71947         1.06299        -7.39661
   H        6.67695        -0.27201        -8.06700
   H        8.10015        -1.33484        -6.36053
   H        7.57636        -1.06983        -3.96787
   H        2.60981         2.63315         0.55043
   H        1.86923         5.01383        -3.24653
   H        3.33049         5.06184        -2.25534
   H        2.97068         7.09281        -3.74946
   H        1.15299         8.67456        -3.18928
   H       -0.59096         7.89954        -1.45616
   H        0.96478         8.47255        -0.83318
   H       -0.59397         8.83753         0.68418
   H       -1.89643        12.57097         3.25824
   H       -2.31570        13.47891        -1.87134
   H       -0.78403        12.62059        -2.03347
   H       -0.83703        14.20460        -1.23299
   H       -3.69006         7.13742         6.95063
   H       -6.05870         2.68855         5.15307
   H       -5.37704         2.55450         6.78379
   H       -4.40599         2.11952         5.36761
   H       -5.23684         8.57955         6.06144
   H       -6.58853         9.07126         7.89731
   H       -7.44121         9.13951         6.34541
   H       -8.83472         8.53756         8.42711
   H       -9.58756        10.41343         9.85693
   H       -8.41489        12.65468         9.63625
   H       -9.47748        12.26468         8.28044
   H       -7.53349        14.60378         9.06099
   H       -5.60334        19.54023         9.19309
   H       -3.47188        19.99262         4.08302
   H       -2.96440        22.94662         7.12023
   H       -4.30874        21.58394         8.70006
   H       -4.76811        17.96213         4.53395
*
