# ORCA input file
# SCF done       -188.667175669202          0.000717215946
! CAM-B3LYP def2-SVP def2/J RIJCOSX Grid4 TightSCF
%maxcore 5000
%tddft
    Mode sTDDFT
    Ethresh 5.0
    maxcore 5000
end

%pal
  nprocs 6
  end
* xyz 0 1
   C       -0.06426        -0.62780         3.21211
   C       -0.17971         0.42404         4.11551
   C       -0.00504         1.78597         3.69425
   N       -0.14898         2.78053         4.59816
   C       -0.42017         2.46557         5.83246
   C       -0.56852         1.12251         6.24745
   N       -0.45908         0.13360         5.41196
   C        0.29581         2.08647         2.34203
   C        0.38378         0.99647         1.43648
   C        0.21116        -0.35456         1.87672
   N        0.32140        -1.38469         0.99836
   C        0.58695        -1.09585        -0.24032
   C        0.74751         0.24005        -0.68054
   N        0.64753         1.24969         0.13466
   C        0.51398         3.39625         1.81210
   C        0.63746         4.54788         2.51542
   C        0.85088         5.81918         1.92418
   C        0.87819         6.18737         0.58763
   C        1.11433         7.54949         0.42026
   C        1.27929         8.23381         1.64069
   S        1.12745         7.19677         2.98525
   C        1.53276         9.59925         1.36330
   C        1.50096         9.78337        -0.02940
   C        1.25473         8.50195        -0.66916
   C        1.21712         8.24669        -2.00876
   C        1.39875         9.25537        -2.97581
   N        1.55660        10.06569        -3.77330
   C        1.00624         6.95213        -2.52814
   N        0.83144         5.90849        -2.96976
   C        1.74398        11.10150        -0.41026
   C        2.00504        11.91993         0.67605
   S        1.87244        11.05022         2.19977
   C        2.36083        13.30553         0.67874
   S        1.93592        14.15043         2.19400
   C        1.38215        15.69002         1.55326
   C        0.38278        16.42741         2.10576
   S        0.12756        17.89983         1.25491
   C        1.36382        17.50623         0.12666
   C        1.94834        16.31163         0.40985
   S        3.29200        15.64245        -0.50487
   C        2.99644        13.89959        -0.37610
   C        3.54152        13.12461        -1.44683
   C        3.76838        13.55286        -2.71051
   C        4.17720        12.68321        -3.75376
   C        4.32277        11.30374        -3.71917
   C        4.60108        10.77299        -4.97235
   C        4.69757        11.75272        -5.97973
   S        4.42224        13.32270        -5.37250
   C        4.97242        11.11676        -7.21354
   C        5.03598         9.72682        -6.98441
   C        4.78663         9.46443        -5.57820
   C        4.69216         8.25066        -4.95958
   C        4.88165         7.03366        -5.64796
   N        5.04662         6.03759        -6.19155
   C        4.37688         8.12885        -3.59299
   N        4.10346         8.02254        -2.48273
   C        5.28667         9.00307        -8.14310
   C        5.42110         9.81911        -9.25790
   S        5.22530        11.52311        -8.85762
   C        5.67731         9.42931       -10.60326
   C        5.84892         8.08433       -11.01944
   C        6.06938         7.77266       -12.39952
   N        6.21713         6.47985       -12.77496
   C        6.15417         5.54957       -11.86820
   C        5.94747         5.85906       -10.50753
   N        5.80363         7.09001       -10.10847
   C        6.13541         8.76650       -13.40717
   C        5.99335        10.10750       -12.98946
   C        5.76369        10.41944       -11.61054
   N        5.61790        11.69939       -11.22645
   C        5.69015        12.65043       -12.11332
   C        5.93198        12.34487       -13.46758
   N        6.07816        11.11929       -13.88125
   C        6.34198         8.33234       -14.76998
   C        6.34291         9.08546       -15.87016
   H       -0.18283        -1.64474         3.54755
   H       -0.53515         3.28669         6.52791
   H       -0.78967         0.87292         7.27677
   H        0.67428        -1.92648        -0.92813
   H        0.95553         0.47131        -1.71653
   H        0.61556         3.41324         0.73578
   H        0.57925         4.51857         3.59330
   H        0.72826         5.49052        -0.21596
   H        1.68157        11.46212        -1.42027
   H       -0.19882        16.19389         2.97390
   H        1.60519        18.17952        -0.67014
   H        3.77069        12.09858        -1.19882
   H        3.56723        14.58028        -2.98080
   H        4.21052        10.71892        -2.82593
   H        5.37391         7.93483        -8.21068
   H        6.27536         4.52948       -12.20731
   H        5.90575         5.09511        -9.74341
   H        5.56519        13.66427       -11.76045
   H        6.01100        13.12270       -14.21526
   H        6.49517         7.26436       -14.85122
   H        6.18141        10.14724       -15.83735
   H        6.51062         8.63852       -16.83592
*
