# ORCA input file
# SCF done       -201.964972803608          0.000793307009
! CAM-B3LYP def2-SVP def2/J RIJCOSX Grid4 TightSCF
%maxcore 5000
%tddft
    Mode sTDDFT
    Ethresh 5.0
    maxcore 5000
end

%pal
  nprocs 6
  end
* xyz 0 1
   C       -0.05587        -0.18814        -2.99686
   O       -0.75064        -1.04446        -3.50083
   C        0.11950         1.19236        -3.48592
   C        1.02899         1.87546        -2.65906
   C        1.33361         3.20014        -2.92931
   C        0.72838         3.81509        -4.01952
   C       -0.16976         3.12402        -4.83819
   C       -0.48059         1.79743        -4.57117
  Br       -0.97511         3.98360        -6.31432
  Br        1.14168         5.62263        -4.38230
   C        1.49178         0.96870        -1.61090
   C        2.45547         1.25612        -0.68510
   C        3.11719         2.50221        -0.59984
   N        3.68697         3.49100        -0.48497
   C        2.95649         0.36759         0.29340
   N        3.43126        -0.28363         1.11001
   C        0.77536        -0.28951        -1.77790
   C        0.80425        -1.34293        -0.91443
   C        0.13520        -2.58632        -0.98772
   S       -0.86345        -3.23820        -2.27761
   C       -1.03222        -4.64731        -1.26298
   N       -0.38353        -4.53697        -0.11670
   N        0.24920        -3.42724         0.02242
   C       -1.79669        -5.78235        -1.63512
   C       -1.93269        -6.84835        -0.80383
   C       -2.68286        -7.99968        -1.14178
   N       -2.85994        -9.06806        -0.30025
   C       -2.40415        -9.17901         1.06503
   C       -3.27597        -8.36682         2.01912
   C       -3.64174       -10.08032        -0.88956
   O       -3.93876       -11.11190        -0.33013
   C       -3.94251        -9.57265        -2.21272
   C       -3.35032        -8.29729        -2.33473
   C       -3.66433        -7.78362        -3.65258
   O       -3.38539        -6.73941        -4.20540
   N       -4.44090        -8.79356        -4.24164
   C       -4.91150        -8.67332        -5.60085
   C       -4.05203        -9.47712        -6.57337
   C       -4.61172        -9.87286        -3.40249
   C       -5.35260       -11.01870        -3.75303
   C       -5.46172       -12.13589        -2.97472
   C       -6.25972       -13.23476        -3.36154
   S       -7.48067       -12.97176        -4.56275
   C       -8.20713       -14.52296        -4.32963
   C       -7.43524       -15.28948        -3.44280
   C       -6.32729       -14.56561        -2.88294
   C       -5.45399       -15.25651        -2.01181
   C       -4.18616       -14.64563        -1.46857
   F       -4.41235       -13.80045        -0.46178
   F       -3.34863       -15.57994        -0.98890
   F       -3.48157       -13.99077        -2.41007
   C       -5.71528       -16.56233        -1.65452
   C       -6.77542       -17.26918        -2.21725
   C       -7.60399       -16.66562        -3.14315
   C       -8.51065       -17.49990        -3.83181
   N       -9.18074       -18.25135        -4.38223
   C       -9.42903       -14.76768        -4.99557
   C      -10.51099       -15.50928        -4.62693
   C      -11.51652       -15.86317        -5.66776
   O      -11.60981       -15.38885        -6.77367
   C      -12.32655       -16.93979        -5.06151
   C      -11.93231       -17.12880        -3.72400
   C      -10.89555       -16.15420        -3.39169
   C      -10.51849       -15.79603        -2.12346
   C      -10.94663       -16.46128        -0.95592
   N      -11.23898       -16.98582         0.02164
   C       -9.72751       -14.66756        -1.83597
   N       -9.12169       -13.73274        -1.55816
   C      -12.52949       -18.11706        -2.96189
   C      -13.51644       -18.90133        -3.54819
   C      -13.91132       -18.69950        -4.87257
   C      -13.31224       -17.70982        -5.64183
  Br      -15.26262       -19.77115        -5.63979
  Br      -14.32276       -20.26011        -2.51535
   H        2.01883         3.76801        -2.32142
   H       -1.17370         1.25174        -5.19255
   H        1.39530        -1.26089        -0.01023
   H       -2.27081        -5.76743        -2.60672
   H       -1.44153        -6.81133         0.15765
   H       -1.35937        -8.86430         1.12872
   H       -2.47200       -10.24043         1.31919
   H       -3.25249        -7.30926         1.76563
   H       -2.91713        -8.48993         3.03699
   H       -4.30510        -8.71460         1.96965
   H       -4.84698        -7.61003        -5.84817
   H       -5.95878        -8.98342        -5.65551
   H       -3.02514        -9.12151        -6.54178
   H       -4.42999        -9.35518        -7.58452
   H       -4.05889       -10.53519        -6.32089
   H       -5.84833       -11.00836        -4.71533
   H       -4.94664       -12.16059        -2.02603
   H       -5.05825       -17.07149        -0.96758
   H       -6.92039       -18.30887        -1.96758
   H       -9.53982       -14.27250        -5.95720
   H      -12.24288       -18.30494        -1.93971
   H      -13.60641       -17.54954        -6.66749
*
