# ORCA input file
# SCF done       -230.616349172632          0.000446092545
! CAM-B3LYP def2-SVP def2/J RIJCOSX Grid4 TightSCF
%maxcore 5000
%tddft
    Mode sTDDFT
    Ethresh 5.0
    maxcore 5000
end

%pal
  nprocs 6
  end
* xyz 0 1
   C        0.69449         1.06841        -2.04669
   C        1.43097        -0.07734        -1.91706
   C        1.43702        -1.12433        -2.86276
   N        1.49727        -1.99582        -3.60616
   C        2.19509        -0.37573        -0.76818
   N        2.78742        -0.66542         0.17082
   C       -0.34472         1.29461        -3.04841
   C       -1.23075         2.27870        -2.56782
   C       -2.34402         2.65950        -3.28777
   C       -2.57455         2.04518        -4.51777
   C       -1.68837         1.07829        -5.00540
   C       -0.56732         0.69643        -4.27785
   C       -1.90887         0.48835        -6.37484
   O       -1.50874         1.00531        -7.38227
   O       -2.50720        -0.69235        -6.29202
   C       -2.81479        -1.32176        -7.53099
   C       -3.76833         2.37024        -5.34493
   O       -4.13534         1.69923        -6.27769
   O       -4.38498         3.47847        -4.93735
   C       -5.53327         3.86092        -5.68350
   C       -0.75444         2.77787        -1.25836
   O       -1.28334         3.57618        -0.52459
   C        0.57155         2.12231        -1.05876
   C        1.43751         2.61463        -0.13643
   C        2.84179         2.42767        -0.04593
   S        3.84073         2.04601        -1.42500
   C        5.28312         2.05116        -0.46237
   C        4.98376         2.36635         0.86554
   C        3.61747         2.59920         1.08105
   C        5.93741         2.53402         1.88667
   N        6.68063         2.72510         2.73844
   C        6.52141         1.74894        -1.08363
   C        7.64300         1.36731        -0.42207
   C        8.88407         0.97665        -0.99131
   N        9.40383         1.26125        -2.23482
   C        8.94446         2.22543        -3.20869
   C        8.92503         3.64529        -2.65323
   C       10.63880         0.61147        -2.43901
   O       11.29556         0.72500        -3.45386
   C       10.86117        -0.14218        -1.22623
   C        9.78529         0.12854        -0.35173
   C        9.96794        -0.66062         0.85084
   O        9.31934        -0.76598         1.86514
   N       11.17031        -1.36398         0.61343
   C       11.68576        -2.30108         1.58229
   C       11.27359        -3.73538         1.25883
   C       11.69993        -1.07948        -0.62072
   C       12.86111        -1.69212        -1.15092
   C       13.39593        -1.32989        -2.34767
   C       14.51018        -1.98637        -2.92201
   O       15.02249        -3.11507        -2.37986
   C       16.04438        -3.53450        -3.15132
   C       16.21844        -2.65492        -4.22260
   C       15.22385        -1.65521        -4.07801
   C       15.01315        -0.55378        -4.92066
   N       14.86492         0.33921        -5.62271
   C       17.19839        -2.77362        -5.21752
   N       18.01114        -2.90293        -6.01516
   C       16.78694        -4.70391        -2.86022
   C       16.53642        -5.52736        -1.81169
   C       17.24638        -6.72619        -1.54110
   C       18.49672        -7.10861        -1.91723
   C       19.64335        -6.41335        -2.46852
   C       19.99930        -5.10772        -2.26516
   C       21.21930        -4.54724        -2.70469
   N       22.19607        -4.04099        -3.02820
   C       19.23261        -4.18424        -1.52664
   N       18.64800        -3.39900        -0.92779
   C       20.50799        -7.42820        -3.07264
   C       20.05047        -8.70553        -2.69727
   C       18.83407        -8.56485        -1.86910
   O       18.20695        -9.42803        -1.30595
   C       20.68848        -9.85764        -3.11383
   C       21.80967        -9.73096        -3.92623
   C       22.26204        -8.46492        -4.31278
   C       21.61698        -7.30349        -3.89003
   C       23.47630        -8.39646        -5.17538
   O       24.21079        -9.33503        -5.36255
   O       23.65815        -7.18902        -5.70082
   C       24.80057        -7.03129        -6.53252
   C       22.48916       -10.96179        -4.46720
   O       22.19566       -11.46011        -5.51969
   O       23.36362       -11.44973        -3.59588
   C       24.11511       -12.57478        -4.03782
   H       -3.02133         3.40740        -2.90695
   H        0.10895        -0.04062        -4.68088
   H       -1.92023        -1.39246        -8.15266
   H       -3.57206        -0.73803        -8.05684
   H       -3.19322        -2.30982        -7.28329
   H       -6.31914         3.11024        -5.57866
   H       -5.28052         3.96000        -6.74087
   H       -5.85704         4.81400        -5.27396
   H        1.00887         3.30035         0.58857
   H        3.20653         2.85292         2.04228
   H        6.49961         1.75940        -2.16367
   H        7.60490         1.23710         0.65177
   H        7.96225         1.93980        -3.59490
   H        9.66189         2.16134        -4.03305
   H        8.23008         3.73627        -1.82166
   H        8.62603         4.33714        -3.43559
   H        9.91741         3.92302        -2.30673
   H       11.25689        -2.00897         2.54489
   H       12.77347        -2.20722         1.63692
   H       10.18955        -3.81648         1.25735
   H       11.67051        -4.41037         2.01182
   H       11.64428        -4.04044         0.28249
   H       13.33087        -2.48048        -0.58016
   H       12.97197        -0.51770        -2.92343
   H       17.56610        -4.93373        -3.57418
   H       15.68946        -5.30993        -1.17540
   H       16.69160        -7.49334        -1.00774
   H       20.31809       -10.82642        -2.81625
   H       21.98667        -6.34566        -4.21749
   H       24.71528        -7.66875        -7.41475
   H       25.70601        -7.30373        -5.98679
   H       24.82302        -5.98273        -6.81696
   H       24.78283       -12.26953        -4.84507
   H       23.44736       -13.35800        -4.40190
   H       24.68323       -12.91815        -3.17749
*
