# ORCA input file
# SCF done       -207.350199221465          0.000903521832
! CAM-B3LYP def2-SVP def2/J RIJCOSX Grid4 TightSCF
%maxcore 5000
%tddft
    Mode sTDDFT
    Ethresh 5.0
    maxcore 5000
end

%pal
  nprocs 6
  end
* xyz 0 1
   C       -6.02820         8.43372        -9.64041
   C       -6.80206         9.55042        -9.78057
   C       -7.78478         9.71501       -10.78065
   N       -8.59179         9.90126       -11.57437
   C       -6.68351        10.69205        -8.95840
   N       -6.59438        11.65228        -8.33680
   C       -6.03386         7.25289       -10.49328
   C       -5.02048         6.34798       -10.05203
   C       -4.79424         5.15677       -10.68220
   C       -5.58366         4.80687       -11.79938
   C       -6.60073         5.70220       -12.24346
   C       -6.81269         6.92821       -11.57354
   C       -7.38390         5.34047       -13.35858
   C       -7.17369         4.15293       -14.00539
   C       -6.17222         3.27290       -13.56781
   C       -5.39404         3.59256       -12.48826
   C       -4.34462         6.90989        -8.87973
   O       -3.43701         6.44761        -8.22159
   C       -5.01339         8.21531        -8.62055
   C       -4.68718         8.93640        -7.53040
   C       -3.67792         8.47135        -6.59802
   C       -3.98958         7.88291        -5.40017
   N       -5.30499         7.64195        -4.97634
   O       -5.47561         7.12347        -3.89092
   O       -6.20322         7.98131        -5.73661
   C       -2.78065         7.48252        -4.70921
   C       -1.73146         7.87998        -5.45329
   C       -2.21279         8.56314        -6.64493
   C       -1.47601         9.19179        -7.61273
   C       -1.92620         9.54373        -8.93616
   C       -0.84541         9.75569        -9.72101
   C        0.34692         9.66060        -8.90958
   N        1.63258         9.90991        -9.42417
   O        2.58450         9.87639        -8.66034
   O        1.72099        10.13786       -10.61708
   C       -0.00700         9.39654        -7.60067
   C        0.84362         9.44910        -6.46240
   C        0.43215         9.86007        -5.24341
   C        1.26560         9.93355        -4.05895
   C        2.60748        10.02406        -4.13618
   C        0.57137         9.91849        -2.78099
   S       -1.17280         9.95629        -2.69725
   C       -1.16017         9.90367        -0.97294
   C       -2.45297         9.86202        -0.24284
   C        0.12670         9.85099        -0.48342
   C        1.09427         9.84481        -1.52299
   C        0.52561         9.78512         0.90478
   C       -0.13408        10.31867         1.94298
   C        0.30734        10.25546         3.32165
   C       -0.14202        11.21794         4.22754
   C        0.27523        11.20992         5.54586
   N       -0.09381        12.36089         6.33997
   O       -1.19137        12.83414         6.15111
   O        0.74402        12.81483         7.08872
   C        1.11932        10.20312         6.04246
   C        1.57877         9.25592         5.11936
   C        1.18947         9.27877         3.79933
   C        1.47939        10.05802         7.43518
   C        0.67371        10.32971         8.48271
   C        1.11619        10.15306         9.82223
   C        0.36874        10.42749        10.92452
   C        0.79842        10.33473        12.31078
   C        1.91062         9.68673        12.77892
   C        2.26308         9.60736        14.14295
   N        2.60689         9.50892        15.23370
   C        2.83194         8.97519        11.98193
   N        3.61158         8.36276        11.40232
   C       -0.20325        11.00628        13.12874
   C       -1.28671        11.40121        12.29215
   C       -1.00850        10.99819        10.90300
   O       -1.75226        11.10082         9.95247
   C       -2.37696        12.05768        12.78601
   C       -2.43267        12.36034        14.16485
   C       -1.35154        11.97171        15.00815
   C       -0.23698        11.29024        14.46898
   C       -1.41699        12.28107        16.38224
   C       -2.49683        12.94269        16.90001
   C       -3.55999        13.32611        16.06859
   C       -3.52885        13.04077        14.73051
   H       -4.02171         4.48920       -10.33042
   H       -7.59130         7.58342       -11.93111
   H       -8.15340         6.02087       -13.69207
   H       -7.77843         3.88486       -14.85846
   H       -6.02060         2.34043       -14.09022
   H       -4.62194         2.91904       -12.14664
   H       -5.21048         9.84930        -7.27377
   H       -2.77821         6.93931        -3.78444
   H       -0.69805         7.68749        -5.24824
   H       -2.94914         9.54559        -9.25193
   H       -0.82518         9.97857       -10.77113
   H        1.88777         9.23036        -6.64120
   H       -0.59951        10.16022        -5.11201
   H        3.11194        10.07515        -5.08371
   H        3.22487        10.08969        -3.25951
   H       -3.22736         9.42592        -0.87101
   H       -2.77744        10.86661         0.03362
   H       -2.35575         9.27046         0.66598
   H        2.14839         9.79769        -1.31750
   H        1.47970         9.30154         1.07062
   H       -1.02760        10.90041         1.77159
   H       -0.79584        12.01293         3.89844
   H        2.23428         8.47253         5.46946
   H        1.55418         8.51548         3.12973
   H        2.45418         9.62381         7.62266
   H       -0.33699        10.68331         8.33985
   H        2.13855         9.81928         9.94830
   H       -3.18515        12.34669        12.13068
   H        0.56885        11.01621        15.13140
   H       -0.59614        11.98341        17.01814
   H       -2.53777        13.17491        17.95366
   H       -4.40350        13.84908        16.49388
   H       -4.34420        13.33382        14.08547
*
