# ORCA input file
# SCF done       -232.614540732197          0.000658494497
! CAM-B3LYP def2-SVP def2/J RIJCOSX Grid4 TightSCF
%maxcore 5000
%tddft
    Mode sTDDFT
    Ethresh 5.0
    maxcore 5000
end

%pal
  nprocs 6
  end
* xyz 0 1
   C       -4.45312        -1.40316        11.17859
   N       -3.65672        -0.53608        11.83932
   C       -2.96669        -0.78592        13.08081
   C       -3.91129        -0.67155        14.27402
   C       -3.61288         0.72574        11.18589
   O       -2.92686         1.64827        11.56643
   C       -4.48836         0.55522        10.04826
   C       -4.97446        -0.78045        10.06846
   C       -5.81100        -0.97238         8.89549
   O       -6.43651        -1.92088         8.48774
   N       -5.76769         0.27746         8.24130
   C       -6.45010         0.48457         6.98595
   C       -5.49674         0.37647         5.79810
   C       -4.99955         1.19479         8.91604
   C       -4.80140         2.52578         8.49134
   C       -4.19766         3.46904         9.27431
   C       -3.93821         4.79243         8.86555
   C       -3.92555         5.92943         9.67319
   N       -4.14289         5.99151        11.06255
   O       -3.93385         7.05953        11.61018
   O       -4.53410         4.98873        11.63570
   C       -3.75179         7.08743         8.85789
   C       -3.68679         6.69825         7.54891
   C       -3.74461         5.27499         7.48577
   C       -3.46665         4.48423         6.38105
   C       -2.82018         3.21543         6.40094
   C       -2.52438         2.85944         5.11635
   C       -3.00150         3.86298         4.22077
   N       -2.86002         3.67539         2.83367
   O       -2.62389         2.53922         2.45890
   O       -2.95723         4.63019         2.08062
   C       -3.61424         4.88677         4.96450
   C       -4.43460         5.97215         4.61867
   C       -4.56634         6.59245         3.39790
   C       -5.43580         7.66774         3.16165
   C       -5.51988         8.37727         1.96336
   C       -6.49549         9.38590         2.08109
   C       -7.04673         9.26638         3.44826
   C       -6.40397         8.25187         4.08107
   C       -8.05196        10.05497         4.01995
   N       -8.87565        10.68169         4.51828
   C       -6.87045        10.32593         1.13277
   C       -7.86522        11.31960         1.24365
   C       -7.90303        12.06806         0.07054
   C       -6.88865        11.53054        -0.82658
   C       -6.27379        10.48985        -0.20942
   C       -5.24191         9.72685        -0.77064
   N       -4.39964         9.12354        -1.26531
   C       -8.78192        13.13272        -0.19559
   C       -8.71693        13.90957        -1.32400
   C       -9.54628        15.01330        -1.59748
   C       -9.11671        16.18965        -2.22651
   N       -7.86808        16.45739        -2.81095
   O       -7.03257        15.56713        -2.86041
   O       -7.69474        17.57881        -3.25744
   C      -10.11823        17.19799        -2.07947
   C      -11.20009        16.65084        -1.46120
   C      -10.95999        15.25237        -1.24034
   C      -11.93128        14.29376        -1.02694
   C      -11.77020        12.89324        -0.75707
   C      -12.96785        12.37592        -0.38796
   C      -13.96891        13.40759        -0.46088
   N      -15.33497        13.09495        -0.32811
   O      -16.16717        13.97663        -0.46903
   O      -15.61285        11.92960        -0.10326
   C      -13.37875        14.57937        -0.92065
   C      -13.99996        15.75516        -1.42097
   C      -15.06660        16.39584        -0.87042
   C      -15.78751        17.49132        -1.40001
   N      -15.86778        17.93874        -2.69634
   C      -15.25274        17.38660        -3.88041
   C      -13.93123        18.07778        -4.21182
   C      -16.75457        19.02816        -2.82357
   O      -16.99318        19.56980        -3.88180
   C      -17.23608        19.26480        -1.47842
   C      -16.62971        18.30799        -0.63785
   C      -17.09781        18.52884         0.71333
   O      -16.84901        17.99273         1.76722
   N      -18.00309        19.61525         0.58329
   C      -18.66547        20.16529         1.74153
   C      -17.97968        21.43671         2.23574
   C      -18.08620        20.05979        -0.70434
   C      -18.93123        21.13883        -1.12269
   C      -18.98631        21.56507        -2.38811
   H       -4.59535        -2.40948        11.52789
   H       -2.17897        -0.03186        13.15699
   H       -2.51342        -1.78027        13.04352
   H       -4.34202         0.32572        14.31534
   H       -3.36344        -0.85169        15.19430
   H       -4.71725        -1.39825        14.19838
   H       -6.95276         1.45549         6.99936
   H       -7.20638        -0.30245         6.91950
   H       -4.70459         1.12025         5.85654
   H       -6.04487         0.52328         4.87193
   H       -5.04254        -0.61078         5.77679
   H       -5.18794         2.80855         7.52256
   H       -3.95920         3.22845        10.30466
   H       -3.69100         8.08682         9.24559
   H       -3.48103         7.34261         6.71587
   H       -2.51554         2.69602         7.28826
   H       -2.00108         1.98053         4.78898
   H       -5.01602         6.36775         5.44134
   H       -3.95780         6.27219         2.56435
   H       -4.92830         8.17990         1.09094
   H       -6.58816         7.92923         5.08887
   H       -8.49653        11.47371         2.09691
   H       -6.66565        11.89979        -1.80952
   H       -9.50025        13.37224         0.57873
   H       -7.87450        13.78117        -1.99069
   H       -9.98669        18.21453        -2.39892
   H      -12.08084        17.17759        -1.15301
   H      -10.85278        12.34666        -0.83211
   H      -13.18749        11.36299        -0.10934
   H      -13.54043        16.14680        -2.31721
   H      -15.40378        16.10689         0.11539
   H      -15.95347        17.56217        -4.70260
   H      -15.12876        16.30981        -3.74857
   H      -14.11504        19.12522        -4.43689
   H      -13.47997        17.61091        -5.08285
   H      -13.22859        18.02494        -3.38279
   H      -18.60892        19.39467         2.51529
   H      -19.71669        20.35353         1.50824
   H      -16.94870        21.22180         2.50533
   H      -18.49590        21.81332         3.11412
   H      -17.98388        22.20812         1.46880
   H      -19.54325        21.60408        -0.36270
   H      -18.38881        21.11563        -3.16418
   H      -19.63761        22.37283        -2.67406
*
