# ORCA input file
# SCF done       -175.842298980642          0.000227007016
! CAM-B3LYP def2-SVP def2/J RIJCOSX Grid4 TightSCF
%maxcore 5000
%tddft
    Mode sTDDFT
    Ethresh 5.0
    maxcore 5000
end

%pal
  nprocs 6
  end
* xyz 0 1
   C       -1.92222        -1.37331         2.49607
   N       -2.66717        -1.27465         1.36695
   C       -3.42173        -2.33840         0.75347
   C       -4.73600        -2.58917         1.48838
   C       -2.68116         0.05576         0.86873
   O       -3.27907         0.38356        -0.13213
   C       -1.85556         0.77860         1.80827
   C       -1.40223        -0.14444         2.79999
   C       -0.57420         0.58949         3.73203
   O        0.01971         0.25917         4.73371
   N       -0.57910         1.91418         3.23672
   C        0.18200         2.92376         3.93061
   C        1.55323         3.14056         3.29311
   C       -1.33588         2.03400         2.08916
   C       -1.61233         3.18080         1.29330
   C       -1.11451         4.43709         1.37710
   C       -1.53320         5.46315         0.48581
   S       -0.84752         7.08618         0.55809
   C       -1.93907         7.46048        -0.78692
   N       -2.65208         6.42647        -1.13376
   N       -2.43461         5.34790        -0.44860
   C       -2.01668         8.72871        -1.41156
   C       -1.24341         9.78309        -1.05212
   C       -1.30681        11.04777        -1.68852
   N       -0.49367        12.10931        -1.35677
   C        0.56442        12.11384        -0.37629
   C        1.82230        11.41726        -0.88994
   C       -0.75553        13.24102        -2.14701
   O       -0.15292        14.29106        -2.03452
   C       -1.83072        12.82637        -3.01909
   C       -2.14498        11.47774        -2.71346
   C       -3.23172        11.06760        -3.57603
   O       -3.83473        10.01960        -3.68527
   N       -3.51219        12.20978        -4.34629
   C       -4.51856        12.18417        -5.38004
   C       -3.90329        12.01944        -6.76745
   C       -2.68221        13.26130        -4.03350
   C       -2.74819        14.52754        -4.66578
   C       -1.88467        15.53627        -4.38692
   C       -1.96554        16.79019        -5.04653
   S       -0.80976        18.08512        -4.76205
   C       -1.73876        18.99725        -5.94304
   N       -2.75521        18.31749        -6.41084
   N       -2.87638        17.11987        -5.92669
   C       -1.39558        20.31958        -6.32935
   C       -2.14792        21.01849        -7.21475
   C       -1.82529        22.33445        -7.63427
   N       -2.60412        23.06809        -8.50131
   C       -3.88017        22.67818        -9.04959
   C       -5.00344        22.80819        -8.02372
   C       -2.05089        24.33162        -8.77033
   O       -2.57196        25.14620        -9.50651
   C       -0.82442        24.35453        -8.00500
   C       -0.71990        23.11450        -7.31425
   C        0.51051        23.13097        -6.56039
   O        1.03229        22.31572        -5.82412
   N        1.08007        24.38500        -6.85286
   C        2.31915        24.79687        -6.23982
   C        2.08551        25.73576        -5.05852
   C        0.29285        25.12062        -7.70611
   C        0.64500        26.43038        -8.17447
   C       -0.13564        27.14224        -8.99037
   H       -1.80638        -2.31368         3.00337
   H       -2.81273        -3.24692         0.73814
   H       -3.62496        -2.02286        -0.27340
   H       -4.55049        -2.87315         2.52209
   H       -5.28588        -3.38821         0.99932
   H       -5.34584        -1.68925         1.47794
   H        0.31918         2.54558         4.94869
   H       -0.39499         3.84994         3.97963
   H        2.13637         2.22587         3.36416
   H        2.08412         3.93176         3.81580
   H        1.46364         3.40808         2.24248
   H       -2.32524         2.98631         0.50126
   H       -0.37476         4.73339         2.10243
   H       -2.73813         8.80975        -2.21403
   H       -0.53398         9.66406        -0.24325
   H        0.21041        11.64813         0.54791
   H        0.78486        13.16657        -0.17766
   H        1.62236        10.37578        -1.13196
   H        2.60037        11.45792        -0.13267
   H        2.18233        11.91719        -1.78569
   H       -5.12045        13.09535        -5.32743
   H       -5.15649        11.32428        -5.15688
   H       -3.23948        12.84883        -7.00073
   H       -4.69017        11.98011        -7.51539
   H       -3.33384        11.09431        -6.81322
   H       -3.51478        14.69959        -5.40692
   H       -1.10002        15.40949        -3.65430
   H       -0.50653        20.75114        -5.89184
   H       -3.03009        20.54600        -7.62122
   H       -3.81883        21.65486        -9.43004
   H       -4.06674        23.35660        -9.88702
   H       -4.82177        22.16716        -7.16405
   H       -5.94960        22.52578        -8.47691
   H       -5.07540        23.83752        -7.68072
   H        2.96273        25.26571        -6.98951
   H        2.79997        23.87955        -5.88798
   H        1.56630        26.63830        -5.37355
   H        3.03789        26.01478        -4.61609
   H        1.48387        25.23682        -4.30280
   H        1.59169        26.83089        -7.83882
   H       -1.08208        26.76339        -9.33844
   H        0.15864        28.12080        -9.32861
*
