# ORCA input file
# SCF done       -139.303132245386          0.000850346373
! CAM-B3LYP def2-SVP def2/J RIJCOSX Grid4 TightSCF
%maxcore 5000
%tddft
    Mode sTDDFT
    Ethresh 5.0
    maxcore 5000
end

%pal
  nprocs 6
  end
* xyz 0 1
   C       -0.86047         0.88167        -0.51798
   S        0.54558         1.10351         0.43206
   C        0.98550         2.53038        -0.48111
   C        0.06579         2.77073        -1.48462
   C       -0.98990         1.82744        -1.49213
   C       -2.11756         1.83032        -2.48746
   C       -1.98784         0.62295        -3.37503
   C       -2.90010        -0.32461        -3.47345
   C       -2.11096         3.12824        -3.30906
   C       -0.69796         3.51338        -3.73101
   C        0.14586         3.85999        -2.50580
   C        2.18303         3.20198        -0.10131
   C        2.52994         4.46905        -0.43120
   C        3.74193         5.12615        -0.08887
   S        3.74226         6.86159        -0.11085
   C        5.39374         6.98178         0.39950
   C        5.93805         5.70050         0.55993
   C        5.00833         4.64689         0.27326
   C        5.45182         3.30851         0.31608
   C        6.73655         3.04361         0.68759
   F        7.17137         1.77079         0.72749
   C        7.63490         4.08196         1.02297
   F        8.88839         3.76568         1.39548
   C        7.25557         5.38884         0.95135
   C        6.02850         8.23122         0.59602
   C        5.41570         9.43384         0.48859
   C        6.08960        10.67485         0.69328
   C        5.50085        11.88396         0.73673
   C        4.02580        12.08656         0.56454
   C        6.32324        13.12304         0.99514
   N        6.08724        14.16242         0.02267
   C        5.24101        15.19712         0.24266
   C        4.73276        16.01218        -0.71697
   C        3.91305        17.11719        -0.41551
   C        3.35941        17.96837        -1.33238
   C        2.52480        19.08076        -1.06351
   C        2.11410        19.75809        -2.16964
   C        2.59725        19.22458        -3.38640
   S        3.59710        17.82085        -3.07441
   C        2.35714        19.69344        -4.66215
   C        1.57415        20.80651        -5.03713
   C        1.52738        21.02568        -6.38068
   C        2.26936        20.09977        -7.15186
   S        3.03559        18.92806        -6.08791
   C        2.39722        20.08251        -8.51921
   C        3.14186        19.14117        -9.24380
   C        3.24587        19.15221       -10.60543
   C        3.97555        18.23436       -11.40502
   C        4.69880        17.17244       -10.97102
   C        5.40606        16.29671       -11.85366
   C        6.12980        15.25091       -11.44593
   H       -1.51844         0.06085        -0.31137
   H       -3.06822         1.75450        -1.94741
   H       -1.07184         0.55955        -3.94638
   H       -3.82090        -0.28640        -2.91356
   H       -2.77374        -1.17499        -4.12188
   H       -2.53394         3.93555        -2.70650
   H       -2.74615         2.99526        -4.18706
   H       -0.73225         4.37333        -4.40264
   H       -0.23427         2.68704        -4.27186
   H       -0.22576         4.79385        -2.06947
   H        1.18685         4.01844        -2.79842
   H        2.82368         2.63440         0.55840
   H        1.81454         5.09445        -0.94471
   H        4.80778         2.49361         0.03440
   H        7.96613         6.16316         1.18890
   H        7.07711         8.19640         0.85931
   H        4.36200         9.45968         0.24888
   H        7.15950        10.61126         0.85096
   H        3.48112        11.62005         1.38527
   H        3.67473        11.63750        -0.36356
   H        3.77669        13.14485         0.54661
   H        7.38829        12.86813         0.98974
   H        6.07543        13.52927         1.98187
   H        6.24711        13.90677        -0.94149
   H        5.01942        15.38893         1.28510
   H        4.95448        15.82067        -1.75816
   H        3.69439        17.31118         0.62725
   H        2.25658        19.34380        -0.05489
   H        1.47915        20.62565        -2.14554
   H        1.06721        21.41436        -4.30884
   H        0.98070        21.82678        -6.84707
   H        1.87904        20.85835        -9.06914
   H        3.64955        18.37816        -8.66923
   H        2.72256        19.93743       -11.13814
   H        3.94082        18.41240       -12.47412
   H        4.76379        16.95027        -9.91526
   H        5.33210        16.51660       -12.91213
   H        6.22095        15.00431       -10.40102
   H        6.65032        14.61222       -12.13828
*
