# ORCA input file
# SCF done       -220.519884835958          0.000713390737
! CAM-B3LYP def2-SVP def2/J RIJCOSX Grid4 TightSCF
%maxcore 5000
%tddft
    Mode sTDDFT
    Ethresh 5.0
    maxcore 5000
end

%pal
  nprocs 6
  end
* xyz 0 1
   C      -17.40915         6.59305         5.85414
   C      -17.33894         5.44133         6.59195
   C      -18.20175         5.13475         7.66623
   N      -18.86842         4.82934         8.54915
   C      -16.42045         4.38986         6.38718
   N      -15.71942         3.48690         6.27771
   C      -18.37909         7.66317         6.05013
   C      -18.16145         8.66443         5.07282
   C      -18.92828         9.80126         4.98880
   C      -19.95624         9.96506         5.92194
   C      -20.16592         8.96157         6.89884
   C      -19.39509         7.80918         6.97853
   S      -21.48825         9.36337         7.95240
   C      -21.73610        10.85276         7.08006
   C      -20.87525        11.04160         6.05163
  Br      -23.10811        12.01694         7.60768
   C      -17.02760         8.27941         4.21048
   O      -16.63673         8.87859         3.23386
   C      -16.54119         6.97816         4.74878
   C      -15.54221         6.23769         4.20609
   C      -14.62028         6.70666         3.19690
   C      -14.02314         7.97168         3.33087
   C      -13.12565         8.46022         2.41086
   C      -12.79496         7.71513         1.28036
   C      -13.35546         6.47045         1.13194
   C      -14.24010         5.94285         2.08765
   N      -14.67862         4.70124         1.67434
   C      -15.56603         3.80788         2.36753
   C      -14.11285         4.33950         0.47426
   O      -14.35017         3.32035        -0.12316
   C      -13.16028         5.45214         0.05330
   C      -11.71696         4.90755         0.02878
   C      -11.28798         4.58861         1.46287
   O      -11.83066         3.83579         2.23751
   N      -10.19039         5.34888         1.74813
   C       -9.53867         5.34673         3.02887
   C       -9.84241         6.16478         0.67971
   C       -8.84211         7.10855         0.61128
   C       -8.71382         7.86056        -0.56534
   C       -9.58829         7.61919        -1.63108
   C      -10.58026         6.65444        -1.55739
   C      -10.71252         5.93016        -0.39264
   C       -7.73228         8.91399        -0.69562
   C       -6.63975         9.08828         0.07171
   C       -5.73537        10.18080        -0.05204
   S       -6.07378        11.52695        -1.12639
   C       -4.63359        12.30605        -0.61620
   C       -3.92245        11.56142         0.32044
   C       -4.55136        10.36276         0.64039
   C       -2.66614        12.28981         0.73971
   C       -2.66883        12.59211         2.24042
   C       -1.41102        11.50498         0.34793
   C       -2.79645        13.55627        -0.07513
   C       -3.95179        13.52260        -0.85395
   S       -4.16055        14.94945        -1.77924
   C       -2.68134        15.61406        -1.10659
   C       -2.07901        14.73708        -0.22108
   C       -2.32123        16.94253        -1.46421
   C       -1.29146        17.63511        -0.94050
   C       -0.97294        19.00416        -1.28279
   C        0.37087        19.37514        -1.40079
   C        1.59409        18.59446        -1.12840
   O        1.71031        17.47145        -0.71853
   O        2.66301        19.38163        -1.40466
   C        2.26125        20.66189        -1.86322
   C        0.76696        20.63244        -1.84413
   C       -0.16776        21.58552        -2.19484
   C       -1.50393        21.25700        -2.03566
   C       -1.92628        20.01364        -1.55449
   C       -3.35142        19.85262        -1.30415
   C       -3.87705        19.18355        -0.26451
   C       -5.28098        19.03133        -0.05507
   S       -5.90102        17.99075         1.20469
   C       -7.54523        18.26972         0.80752
   C       -7.64016        19.13124        -0.25731
   C       -6.35658        19.54961        -0.73690
   O       -6.49035        20.39961        -1.78082
   C       -7.83311        20.52602        -1.96731
   N       -8.26755        21.38119        -3.00935
   O       -9.46983        21.47882        -3.16484
   O       -7.42126        21.94796        -3.66619
   C       -8.58410        19.79270        -1.09140
   H      -18.73680        10.54131         4.22765
   H      -19.59877         7.07436         7.73903
   H      -20.88679        11.90328         5.40948
   H      -15.38739         5.23049         4.56379
   H      -14.25954         8.55703         4.20567
   H      -12.68075         9.43154         2.55978
   H      -12.11464         8.10836         0.54075
   H      -16.47335         4.33281         2.67311
   H      -15.07859         3.36553         3.23826
   H      -15.82083         3.00986         1.66938
   H      -13.41925         5.82162        -0.94213
   H      -11.70126         4.00141        -0.58453
   H      -10.04693         4.61208         3.65221
   H       -9.60974         6.33114         3.49688
   H       -8.48789         5.07028         2.92365
   H       -8.19559         7.29247         1.45363
   H       -9.48209         8.20297        -2.53313
   H      -11.24363         6.48631        -2.39236
   H       -7.90944         9.61930        -1.49848
   H       -6.38683         8.37366         0.84354
   H       -4.17952         9.64040         1.34511
   H       -2.65138        11.66521         2.80853
   H       -3.56158        13.15153         2.51164
   H       -1.79418        13.18155         2.50352
   H       -1.37245        10.56455         0.89236
   H       -0.52122        12.08412         0.58144
   H       -1.41720        11.29096        -0.71844
   H       -1.15699        14.96310         0.28179
   H       -2.96722        17.41765        -2.19131
   H       -0.58240        17.14401        -0.29034
   H        2.66744        20.82106        -2.86852
   H        2.67925        21.42272        -1.19446
   H        0.12640        22.55400        -2.56719
   H       -2.25693        21.99620        -2.26707
   H       -4.01451        20.37914        -1.97817
   H       -3.23967        18.69022         0.45482
   H       -8.32387        17.79451         1.36695
   H       -9.65295        19.74752        -1.06219
*
