# ORCA input file
# SCF done       -209.935126276478          0.000521259753
! CAM-B3LYP def2-SVP def2/J RIJCOSX Grid4 TightSCF
%maxcore 5000
%tddft
    Mode sTDDFT
    Ethresh 5.0
    maxcore 5000
end

%pal
  nprocs 6
  end
* xyz 0 1
   C       -7.80874        -1.31398        -1.73516
   C       -6.88841        -2.20557        -2.21483
   C       -7.17204        -3.55469        -2.51678
   N       -7.34334        -4.65759        -2.78338
   C       -5.53948        -1.89635        -2.49006
   N       -4.43126        -1.71178        -2.72609
   C       -9.20044        -1.60564        -1.41820
   C       -9.84464        -0.41271        -1.00229
   C      -11.15706        -0.37818        -0.59969
   C      -11.87183        -1.58015        -0.60611
   C      -11.22600        -2.76576        -1.03487
   C       -9.89915        -2.80036        -1.44216
   S      -12.29399        -4.13487        -0.96743
   C      -13.57330        -3.11216        -0.36953
   C      -13.22197        -1.81162        -0.22800
  Br      -15.25168        -3.85694         0.00824
   C       -8.88960         0.70729        -1.07292
   O       -9.13734         1.88800        -1.00254
   C       -7.57376         0.08733        -1.41064
   C       -6.41843         0.78625        -1.42024
   C       -6.33828         2.13860        -0.88453
   C       -5.97938         3.19582        -1.72878
   C       -5.99805         4.50642        -1.30038
   C       -6.34753         4.81918         0.01021
   C       -6.64183         3.78952         0.87250
   C       -6.63306         2.45461         0.44284
   N       -6.84755         1.61897         1.52634
   C       -6.82296         0.18483         1.55191
   C       -7.03053         2.33479         2.68430
   O       -7.17335         1.85236         3.77978
   C       -7.00495         3.81492         2.32464
   C       -8.40833         4.40792         2.57691
   C       -9.41867         3.73852         1.63887
   O       -9.72603         2.56987         1.62067
   N       -9.91561         4.70338         0.81089
   C      -10.83685         4.43537        -0.25863
   C       -9.39461         5.95223         1.11130
   C       -9.64955         7.16456         0.50893
   C       -9.00792         8.31295         1.00085
   C       -8.12460         8.19178         2.08085
   C       -7.86732         6.96639         2.67322
   C       -8.50524         5.84560         2.18874
   C       -9.27505         9.57626         0.35563
   C       -8.92158        10.79419         0.82396
   C       -9.16353        12.01097         0.11923
   C       -8.84221        13.26474         0.60713
   O       -8.99549        14.41135        -0.15305
   C       -9.54082        14.23680        -1.38661
   C       -9.91307        12.94942        -1.86913
   C      -10.44975        12.98802        -3.11454
   S      -10.50704        14.60122        -3.71890
   C       -9.80069        15.22723        -2.27514
   O       -9.72236        11.82345        -1.12923
   C       -8.35188        13.51591         1.91042
   C       -7.95181        14.75261         2.34257
   C       -7.53351        15.00834         3.65089
   C       -7.07453        16.22600         4.10048
   C       -6.69191        16.55482         5.42087
   C       -6.26515        17.84019         5.57790
   C       -6.27139        18.59281         4.38370
   S       -6.86573        17.62145         3.05625
   C       -5.85539        19.89892         4.20303
   C       -5.37864        20.80174         5.17886
   C       -5.01467        22.01356         4.67785
   C       -5.17324        22.13522         3.27327
   S       -5.83599        20.64892         2.61885
   C       -4.84147        23.23041         2.52089
   C       -4.94324        23.36990         1.12632
   S       -5.56428        22.15293         0.02237
   C       -5.30276        23.11058        -1.38097
   C       -4.75925        24.32814        -1.04306
   C       -4.56441        24.46315         0.36454
   O       -4.02454        25.66256         0.66590
   C       -3.87179        26.29351        -0.53004
   N       -3.31311        27.59236        -0.51972
   O       -3.17771        28.13237        -1.60252
   O       -3.01032        28.07462         0.55064
   C       -4.29303        25.55018        -1.60053
   H      -11.60878         0.54329        -0.26877
   H       -9.45083        -3.72934        -1.75260
   H      -13.88561        -1.04589         0.12983
   H       -5.51690         0.37540        -1.85607
   H       -5.72712         2.96794        -2.75370
   H       -5.74389         5.29698        -1.98919
   H       -6.37031         5.84495         0.34476
   H       -5.97171        -0.19491         0.98381
   H       -7.74884        -0.23316         1.14847
   H       -6.73397        -0.11075         2.59841
   H       -6.27925         4.35072         2.94192
   H       -8.67543         4.21523         3.62034
   H      -10.90222         3.35448        -0.36384
   H      -10.46007         4.85845        -1.19031
   H      -11.82251         4.85226        -0.03815
   H      -10.33387         7.24525        -0.32123
   H       -7.61352         9.06523         2.45224
   H       -7.17610         6.89392         3.49963
   H       -9.81540         9.52409        -0.57935
   H       -8.41439        10.88245         1.76888
   H      -10.80942        12.17132        -3.70440
   H       -9.62009        16.27579        -2.16570
   H       -8.31365        12.69072         2.60246
   H       -7.95853        15.57861         1.64481
   H       -7.57600        14.20210         4.37229
   H       -6.74742        15.83187         6.21572
   H       -5.93847        18.25912         6.51254
   H       -5.31872        20.53508         6.21864
   H       -4.62799        22.82657         5.26624
   H       -4.43690        24.09019         3.03881
   H       -5.55866        22.72635        -2.34605
   H       -4.26336        25.85212        -2.62673
*
