# ORCA input file
# SCF done       -218.843212242634          0.000589467346
! CAM-B3LYP def2-SVP def2/J RIJCOSX Grid4 TightSCF
%maxcore 5000
%tddft
    Mode sTDDFT
    Ethresh 5.0
    maxcore 5000
end

%pal
  nprocs 6
  end
* xyz 0 1
   C      -17.10689         2.62142         0.64219
   C      -17.71640         1.43849         0.31693
   C      -19.07057         1.14425         0.58050
   N      -20.16534         0.85036         0.76246
   C      -17.08311         0.36123        -0.33655
   N      -16.62723        -0.55406        -0.85898
   C      -17.72604         3.73916         1.34039
   C      -16.78567         4.79395         1.45968
   C      -17.06883         5.97247         2.10504
   C      -18.34318         6.12070         2.66183
   C      -19.28175         5.06866         2.52736
   C      -18.99563         3.87708         1.87513
   S      -20.79647         5.46392         3.28243
   C      -20.15539         7.01174         3.76610
   C      -18.87471         7.22544         3.38088
  Br      -21.24039         8.20218         4.72608
   C      -15.52705         4.40204         0.79986
   O      -14.58982         5.11547         0.52822
   C      -15.71717         2.97865         0.39322
   C      -14.72953         2.23650        -0.15387
   C      -13.34626         2.68951        -0.18414
   C      -12.70961         2.85872        -1.41995
   C      -11.43844         3.38313        -1.51809
   C      -10.72602         3.73285        -0.37434
   C      -11.30933         3.51636         0.85156
   C      -12.60610         2.99274         0.96020
   N      -12.90145         2.76518         2.29345
   C      -14.07918         2.15830         2.84302
   C      -11.86066         3.13756         3.11008
   O      -11.83131         2.98236         4.30512
   C      -10.77751         3.75016         2.23132
   C      -10.65259         5.25171         2.57193
   C      -11.97765         5.95241         2.25169
   O      -13.04886         5.74961         2.77347
   N      -11.73785         6.85339         1.25534
   C      -12.76227         7.65237         0.64267
   C      -10.39827         6.87586         0.89850
   C       -9.77232         7.63950        -0.06182
   C       -8.38650         7.50235        -0.23806
   C       -7.68352         6.59385         0.56122
   C       -8.32467         5.82074         1.51593
   C       -9.68465         5.96201         1.68436
   C       -7.74403         8.29609        -1.26187
   C       -6.41588         8.48176        -1.40299
   C       -5.79754         9.23679        -2.43861
   S       -4.05645         9.45071        -2.38413
   C       -4.10667        10.34110        -3.84935
   C       -5.40385        10.46401        -4.35375
   C       -6.35347         9.84433        -3.55426
   C       -5.40157        11.23432        -5.65341
   C       -5.92935        10.38138        -6.81043
   C       -6.21040        12.52970        -5.54307
   C       -3.92492        11.51974        -5.80233
   C       -3.20855        10.98512        -4.72185
   S       -1.52605        11.28504        -4.83628
   C       -1.76935        12.13380        -6.36179
   C       -3.11928        12.16011        -6.72241
   C       -0.65795        12.66552        -7.03547
   C       -0.74318        13.29948        -8.24806
   C        0.32514        13.83813        -8.96535
   C        0.13750        14.42987       -10.19980
   C        1.07792        15.02204       -11.06841
   C        0.54190        15.50528       -12.23221
   C       -0.84821        15.31224       -12.33379
   S       -1.46172        14.51053       -10.91274
   C       -1.75106        15.63249       -13.33823
   C       -1.58556        16.26917       -14.58107
   C       -2.74621        16.38488       -15.29344
   C       -3.88589        15.84200       -14.64756
   S       -3.42219        15.18699       -13.09545
   C       -5.16762        15.80942       -15.14323
   C       -6.30924        15.26157       -14.52735
   S       -7.84472        15.30192       -15.39047
   C       -8.72643        14.50737       -14.14463
   C       -7.89386        14.21237       -13.09219
   C       -6.54331        14.63750       -13.30998
   O       -5.77784        14.32482       -12.24203
   C       -6.60411        13.71045       -11.35765
   N       -6.05420        13.27094       -10.14124
   O       -6.81531        12.71347        -9.36278
   O       -4.87231        13.46172        -9.92450
   C       -7.89766        13.60864       -11.80626
   H      -16.32319         6.74636         2.19419
   H      -19.74249         3.10411         1.80464
   H      -18.32512         8.12373         3.59511
   H      -14.94300         1.28873        -0.63111
   H      -13.25911         2.60831        -2.31532
   H      -10.99271         3.52604        -2.49026
   H       -9.73269         4.14767        -0.44945
   H      -14.35358         1.26772         2.27434
   H      -14.91704         2.86043         2.85120
   H      -13.84264         1.88512         3.87249
   H       -9.81377         3.26641         2.40998
   H      -10.42411         5.34160         3.63796
   H      -13.71701         7.30087         1.02790
   H      -12.74693         7.51567        -0.43930
   H      -12.62595         8.70984         0.88184
   H      -10.32621         8.33919        -0.66859
   H       -6.62162         6.47222         0.42071
   H       -7.76451         5.11729         2.11383
   H       -8.41556         8.78559        -1.95430
   H       -5.73162         8.04639        -0.68797
   H       -7.40629         9.81786        -3.76759
   H       -6.94794        10.06393        -6.60181
   H       -5.30841         9.49895        -6.94910
   H       -5.93248        10.96434        -7.72707
   H       -7.25090        12.30022        -5.32759
   H       -6.16259        13.07154        -6.48347
   H       -5.81721        13.16039        -4.74848
   H       -3.47481        12.63043        -7.62099
   H        0.30849        12.55073        -6.56213
   H       -1.71948        13.38975        -8.70562
   H        1.32643        13.79247        -8.55888
   H        2.12271        15.07588       -10.81597
   H        1.10996        15.98575       -13.00914
   H       -0.62817        16.62381       -14.91995
   H       -2.81945        16.84102       -16.26504
   H       -5.32819        16.24243       -16.12124
   H       -9.77121        14.31339       -14.26328
   H       -8.71559        13.16421       -11.27861
*
