# ORCA input file
# SCF done       -152.630424541536          0.000888159131
! CAM-B3LYP def2-SVP def2/J RIJCOSX Grid4 TightSCF
%maxcore 5000
%tddft
    Mode sTDDFT
    Ethresh 5.0
    maxcore 5000
end

%pal
  nprocs 6
  end
* xyz 0 1
   C       -1.11605        -0.25792         0.37715
   C       -1.43845        -1.57032         0.10765
   C       -0.49443        -2.56823        -0.20067
   N        0.21997        -3.43074        -0.45896
   C       -2.73640        -2.11605         0.10594
   N       -3.75620        -2.64639         0.08348
   C        0.24270         0.28435         0.38753
   C        0.17884         1.65560         0.73327
   C        1.29323         2.45150         0.82142
   C        2.53594         1.86638         0.55227
   C        2.59050         0.49676         0.20794
   C        1.46075        -0.30949         0.12113
   S        4.22274        -0.02311        -0.08840
   C        4.79985         1.58714         0.24954
   C        3.82400         2.46916         0.56857
  Br        6.63766         1.95221         0.14806
   C       -1.23364         2.03555         0.95279
   O       -1.63685         3.13885         1.27008
   C       -2.01784         0.81310         0.70135
   C       -3.40091         0.74708         0.73986
   C       -4.23791         1.81038         1.04107
   C       -5.62186         1.72001         1.00420
   C       -6.53991         2.75648         1.25469
   C       -7.85091         2.39155         1.09233
   C       -8.01663         1.05020         0.71340
   S       -6.47176         0.25162         0.57985
   C       -9.20795         0.38271         0.42372
   C      -10.50687         0.91015         0.39262
   C      -11.45879         0.00076         0.00248
   C      -10.94922        -1.27570        -0.27275
   S       -9.21958        -1.30152        -0.02133
   C      -11.66640        -2.38633        -0.71381
   C      -11.12555        -3.63469        -0.91426
   C      -11.82544        -4.73002        -1.41515
   C      -11.33056        -6.03365        -1.58136
   C      -12.23529        -6.90891        -2.12283
   C      -13.47705        -6.32162        -2.42185
   S      -13.48044        -4.63658        -1.96731
   C      -14.58110        -6.91245        -3.02456
   C      -14.71965        -8.25555        -3.43907
   C      -15.91597        -8.51598        -4.03109
   C      -16.77578        -7.38516        -4.13889
   S      -16.00305        -5.99001        -3.43289
   C      -18.03878        -7.45166        -4.66795
   C      -19.00441        -6.44896        -4.90703
   C      -19.03507        -5.05283        -5.00781
   C      -17.90145        -4.12820        -4.96165
   O      -16.79786        -4.42875        -5.34406
   O      -18.13064        -2.90850        -4.44018
   C      -20.40862        -4.77052        -5.28757
   N      -21.10281        -5.87873        -5.33667
   O      -20.26362        -6.90734        -5.10704
   C      -21.05765        -3.48581        -5.57791
   C      -22.31540        -3.24114        -5.19469
   C      -20.29106        -2.56004        -6.32246
   C      -19.60604        -1.80884        -6.97616
   C      -18.79293        -0.93852        -7.72093
   C      -19.21906         0.21784        -8.22091
   H        1.21072         3.49385         1.08684
   H        1.55734        -1.34801        -0.14750
   H        4.00204         3.50238         0.80490
   H       -3.87482        -0.19701         0.50047
   H       -3.80325         2.76558         1.29818
   H       -6.21239         3.74087         1.53763
   H       -8.68417         3.05558         1.23581
   H      -10.71748         1.93462         0.64007
   H      -12.50674         0.22428        -0.09146
   H      -12.72094        -2.23920        -0.91116
   H      -10.08193        -3.79334        -0.67276
   H      -10.32578        -6.29612        -1.30135
   H      -12.02812        -7.94451        -2.32183
   H      -13.94414        -8.98512        -3.29187
   H      -16.21179        -9.47722        -4.41178
   H      -18.39503        -8.44213        -4.92435
   H      -19.06195        -2.75727        -4.23014
   H      -22.87430        -3.97823        -4.64723
   H      -22.79930        -2.30990        -5.43254
   H      -17.77304        -1.27449        -7.86169
   H      -20.23310         0.55301        -8.08353
   H      -18.56589         0.85963        -8.78623
*
