# ORCA input file
# SCF done       -159.679687826910          0.000547840260
! CAM-B3LYP def2-SVP def2/J RIJCOSX Grid4 TightSCF
%maxcore 5000
%tddft
    Mode sTDDFT
    Ethresh 5.0
    maxcore 5000
end

%pal
  nprocs 6
  end
* xyz 0 1
   C       -5.80216         3.19587        -5.48759
   C       -4.51409         3.66141        -5.61102
   C       -4.07728         4.50243        -6.65174
   N       -3.67080         5.18687        -7.48019
   C       -3.48403         3.40217        -4.68512
   N       -2.60639         3.26534        -3.95635
   C       -6.92688         3.55881        -6.34187
   C       -8.10442         2.99349        -5.79445
   C       -9.34009         3.15835        -6.36851
   C       -9.41852         3.91809        -7.54195
   C       -8.23686         4.47436        -8.08333
   C       -6.98516         4.30851        -7.50065
   S       -8.55961         5.36725        -9.53922
   C      -10.25577         4.98795        -9.39987
   C      -10.56623         4.23170        -8.32064
  Br      -11.45762         5.62678       -10.69146
   C       -7.76393         2.23265        -4.57398
   O       -8.53953         1.59249        -3.88887
   C       -6.29966         2.34450        -4.43380
   C       -5.51572         1.55203        -3.62458
   C       -5.91168         0.79554        -2.50374
   C       -6.93262         1.11472        -1.62443
   O       -7.30597         0.29152        -0.60090
   C       -6.57988        -0.85514        -0.46193
   C       -5.45975        -1.13819        -1.29567
   C       -4.84670        -2.30298        -0.97095
   S       -5.63203        -3.07312         0.35820
   C       -6.79660        -1.81044         0.47684
   O       -5.09365        -0.30988        -2.30968
   C       -7.59911         2.37563        -1.62606
   C       -8.74457         2.60871        -0.94455
   C       -9.37482         3.88752        -0.90077
   C      -10.58261         4.14108        -0.36340
   C      -11.44544         3.09030         0.26682
   C      -11.11075         5.55096        -0.28511
   N      -11.19677         5.97703         1.09724
   C      -10.12500         6.43635         1.78513
   C      -10.03314         6.40825         3.14033
   C       -8.97233         6.96698         3.87484
   C       -8.85433         6.87302         5.23721
   C       -7.83775         7.40656         6.06361
   C       -7.98557         7.13152         7.39049
   C       -9.12432         6.35427         7.69175
   S      -10.01798         5.99807         6.23097
   C       -9.54070         5.88159         8.92178
   C       -8.96125         6.07164        10.19092
   C       -9.62446         5.44311        11.20393
   C      -10.76572         4.70871        10.80198
   S      -10.96995         4.87574         9.06661
   C      -11.57348         3.99291        11.65445
   C      -12.69686         3.19573        11.41273
   S      -13.49680         2.50566        12.82293
   C      -14.71818         1.66655        11.91173
   C      -14.51176         1.90979        10.55552
   C      -13.39422         2.75582        10.28324
   N      -13.33382         2.86539         8.93398
   N      -14.31385         2.17183         8.33905
   C      -15.02719         1.59496         9.27191
   C      -15.69899         0.89350        12.59701
   C      -16.68692         0.20548        12.01603
   H      -10.21964         2.71572        -5.92795
   H       -6.11168         4.74686        -7.95375
   H      -11.56228         3.90539        -8.08302
   H       -4.48682         1.38118        -3.91858
   H       -3.98805        -2.74655        -1.42912
   H       -7.56298        -1.84083         1.22267
   H       -7.13491         3.16458        -2.19985
   H       -9.21225         1.78677        -0.42515
   H       -8.82575         4.70161        -1.35789
   H      -11.06367         2.81573         1.25146
   H      -11.46459         2.19121        -0.34439
   H      -12.46710         3.44695         0.38218
   H      -12.11357         5.61155        -0.72101
   H      -10.45447         6.24130        -0.81892
   H      -11.88570         5.48746         1.65310
   H       -9.34381         6.88174         1.18465
   H      -10.82135         5.92763         3.70654
   H       -8.19539         7.49554         3.33888
   H       -7.02669         7.97951         5.64921
   H       -7.30575         7.45900         8.15668
   H       -8.07438         6.66452        10.32552
   H       -9.32363         5.47775        12.23632
   H      -11.29253         4.05753        12.69927
   H      -12.68085         3.38588         8.37302
   H      -15.86585         0.98514         9.00561
   H      -15.60219         0.88699        13.67524
   H      -16.81642         0.18546        10.94938
   H      -17.39028        -0.35824        12.60213
*
