# ORCA input file
# SCF done       -135.663060999619          0.000873696866
! CAM-B3LYP def2-SVP def2/J RIJCOSX Grid4 TightSCF
%maxcore 5000
%tddft
    Mode sTDDFT
    Ethresh 5.0
    maxcore 5000
end

%pal
  nprocs 6
  end
* xyz 0 2
   C       -1.92532       -21.25326        -3.70257
   C       -0.58812       -21.27191        -3.82271
   C        0.26728       -22.41011        -3.97256
   C        1.58538       -22.10690        -4.06702
   C        1.86840       -20.72013        -3.99944
   S        0.39579       -19.80034        -3.81124
   C        3.11130       -20.11134        -4.06488
   C        4.37559       -20.70729        -4.21692
   C        5.40800       -19.80829        -4.23786
   C        5.01492       -18.46385        -4.11059
   S        3.27656       -18.37390        -3.94922
   C        5.89118       -17.38877        -4.03582
   C        5.62848       -16.04148        -3.89656
   S        6.96548       -14.97638        -3.43997
   C        5.94895       -13.56556        -3.18899
   C        4.64285       -13.88723        -3.61928
   C        4.46779       -15.24302        -3.98299
   N        3.18472       -15.35688        -4.39108
   N        2.54022       -14.18445        -4.32065
   C        3.38888       -13.28929        -3.86962
   C        6.47178       -12.40152        -2.65990
   C        5.78739       -11.33472        -2.08955
   C        4.52451       -11.26607        -1.49866
   C        3.72063       -12.35944        -1.04929
   C        2.39812       -12.18408        -0.48566
   N        1.61055       -13.24682        -0.39235
   C        2.07250       -14.46121        -0.64513
   C        3.46280       -14.64147        -0.85246
   N        4.22241       -13.58815        -1.09578
   C        4.03620       -15.92969        -0.89807
   N        4.46967       -16.98899        -0.98294
   C        1.18392       -15.55643        -0.67066
   N        0.49912       -16.47673        -0.68355
   C        1.89338       -10.89277        -0.12552
   C        2.72213        -9.80589        -0.53912
   C        3.98886        -9.97710        -1.18822
   N        4.56095        -8.81935        -1.47918
   S        3.60470        -7.60720        -0.98635
   N        2.40832        -8.52998        -0.37971
   C        0.65259       -10.59844         0.44641
   S        0.05744        -8.96504         0.32555
   C       -1.51278        -9.40708         0.96054
   C       -1.56836       -10.71093         1.33668
   C       -0.31098       -11.41754         1.12460
   C       -0.08717       -12.65242         1.64749
   S       -1.24906       -13.60964         2.46293
   C       -2.67123       -12.60359         2.41686
   C       -2.70239       -11.36080         1.92186
   C       -2.58281        -8.37174         1.02563
   O       -3.47370        -8.50073         2.14442
   C       -3.14620        -7.19705         2.63143
   C       -2.15331        -6.97115         1.48951
   H       -2.49009       -22.16864        -3.71066
   H       -2.46811       -20.33305        -3.58863
   H       -0.13903       -23.40535        -4.00162
   H        2.36827       -22.83549        -4.18165
   H        4.50085       -21.77139        -4.30205
   H        6.44352       -20.08143        -4.33968
   H        6.93991       -17.65927        -4.01332
   H        2.69033       -16.17384        -4.71123
   H        3.09015       -12.26736        -3.75105
   H        7.55041       -12.30791        -2.70443
   H        6.33203       -10.39839        -2.04172
   H        0.87294       -13.13215         1.59635
   H       -3.53111       -13.08049         2.85558
   H       -3.61505       -10.78673         1.97596
   H       -3.15334        -8.37289         0.08447
   H       -2.71639        -7.23899         3.63559
   H       -4.02118        -6.54131         2.63274
   H       -1.11189        -6.90201         1.79173
   H       -2.39591        -6.16142         0.80808
*
