# ORCA input file
# SCF done       -174.921971318995          0.000527269049
! CAM-B3LYP def2-SVP def2/J RIJCOSX Grid4 TightSCF
%maxcore 5000
%tddft
    Mode sTDDFT
    Ethresh 5.0
    maxcore 5000
end

%pal
  nprocs 6
  end
* xyz 0 1
   C       12.85732        -1.12458        -3.43567
   C       11.60933        -1.06601        -2.95338
   C       10.71762         0.05963        -2.96010
   C        9.51312        -0.17740        -2.39908
   C        9.34532        -1.50224        -1.90179
   S       10.80110        -2.44167        -2.18463
   C        8.24071        -2.02510        -1.28222
   C        7.00842        -1.37336        -1.00340
   C        6.10312        -2.15073        -0.36601
   C        6.54446        -3.48212        -0.09312
   S        8.19473        -3.67746        -0.68994
   C        5.78165        -4.45429         0.46865
   C        6.19090        -5.79570         0.79261
   C        7.47634        -6.04726         1.18874
   S        7.78759        -7.66616         1.64763
   C        6.14147        -8.08054         1.28437
   C        5.37772        -6.99854         0.81785
   C        4.04396        -7.24487         0.39719
   C        3.25334        -6.13541        -0.24967
   C        3.78972        -5.82418        -1.64825
   C        3.49606        -8.51617         0.50951
   C        2.09234        -8.81360         0.04744
   C        1.04590        -8.41329         1.08909
   C        4.25652        -9.57881         1.05394
   C        3.92115       -10.96630         1.25415
   C        4.97990       -11.68935         1.70078
   S        6.41828       -10.77365         1.94602
   C        5.59405        -9.34663         1.40616
   C        2.62943       -11.62890         1.04829
   C        1.61584       -11.58365         1.93464
   C        0.38324       -12.25753         1.74375
   C       -0.69412       -12.14528         2.57343
   C       -1.94927       -12.79851         2.43448
   C       -2.85125       -12.48147         3.39844
   C       -2.36854       -11.55593         4.35813
   S       -0.72169       -11.10774         3.99833
   C       -3.04584       -11.03170         5.44140
   C       -4.37599       -11.30489         5.83373
   C       -4.76308       -10.62078         6.94531
   C       -3.75660        -9.77895         7.47959
   S       -2.29653        -9.87587         6.53633
   C       -3.85655        -8.96879         8.58834
   C       -2.77421        -8.18957         9.00629
   S       -2.75818        -7.11274        10.38404
   C       -1.08541        -6.76740         9.92940
   N       -0.71551        -7.44245         8.85809
   N       -1.61494        -8.20491         8.35537
   C       -0.15673        -5.91323        10.54965
   C       -0.30581        -5.09723        11.63783
   C        0.72505        -4.24572        12.20365
   C        2.03918        -4.16198        11.81923
   C        2.98399        -3.30688        12.42408
   N        3.80110        -2.63352        12.86869
   C        2.65795        -4.90341        10.79057
   N        3.25737        -5.45750         9.98277
   C        0.12179        -3.48685        13.29479
   C       -1.23326        -3.87580        13.42558
   C       -1.54507        -4.89901        12.41079
   O       -2.61940        -5.44849        12.26107
   C       -2.07429        -3.34150        14.37069
   C       -1.55291        -2.37019        15.23165
   C       -0.19853        -1.98484        15.09392
   C        0.65144        -2.52746        14.13808
   S        0.24096        -0.76968        16.25603
   C       -1.37815        -0.79696        16.90200
   C       -2.20723        -1.66934        16.28144
  Br       -1.82188         0.32973        18.33435
   H       13.30841        -0.26372        -3.89681
   H       13.44394        -2.02305        -3.38004
   H       11.02489         0.99825        -3.38644
   H        8.72756         0.55308        -2.31813
   H        6.83403        -0.35194        -1.29093
   H        5.11787        -1.82763        -0.07803
   H        4.77407        -4.16401         0.72340
   H        8.26394        -5.32855         1.29843
   H        2.20523        -6.40714        -0.33560
   H        3.28631        -5.24363         0.37351
   H        3.71581        -6.70661        -2.28055
   H        4.83194        -5.51937        -1.61014
   H        3.21244        -5.02255        -2.10397
   H        2.00719        -9.88559        -0.13676
   H        1.88659        -8.31159        -0.89904
   H        1.24126        -8.91228         2.03348
   H        0.05131        -8.69547         0.75031
   H        1.05909        -7.34185         1.27141
   H        4.98693       -12.73735         1.93086
   H        2.54338       -12.25523         0.16672
   H        1.72020       -10.99696         2.83774
   H        0.28500       -12.89575         0.87491
   H       -2.13543       -13.48071         1.62370
   H       -3.84797       -12.88098         3.45031
   H       -5.00857       -11.98856         5.29602
   H       -5.73529       -10.69062         7.40054
   H       -4.77876        -8.93154         9.14639
   H        0.80280        -5.93600        10.04800
   H       -3.10174        -3.66206        14.44298
   H        1.67440        -2.19706        14.07540
   H       -3.23749        -1.81383        16.55090
*
