# ORCA input file
# SCF done       -155.577848132760          0.000924832712
! CAM-B3LYP def2-SVP def2/J RIJCOSX Grid4 TightSCF
%maxcore 5000
%tddft
    Mode sTDDFT
    Ethresh 5.0
    maxcore 5000
end

%pal
  nprocs 6
  end
* xyz 0 1
   C        6.15866         1.54764        -3.85034
   C        5.04318         1.12585        -3.23847
   C        3.78540         1.80775        -3.13366
   C        2.83687         1.12831        -2.45072
   C        3.26119        -0.13806        -1.96234
   S        4.92874        -0.43451        -2.40925
   C        2.52259        -1.04739        -1.24059
   C        1.18163        -0.94256        -0.80390
   C        0.74443        -2.02554        -0.10710
   C        1.70703        -3.05524         0.06159
   S        3.20410        -2.57742        -0.72013
   C        1.42513        -4.26660         0.65028
   C        2.21097        -5.40384         0.88122
   S        1.33927        -6.90925         1.05361
   C        2.78189        -7.86567         1.16036
   C        3.91273        -7.03162         1.12219
   C        3.59726        -5.64244         0.99519
   C        4.63015        -4.69528         1.09822
   C        5.92117        -5.12223         1.23134
   F        6.91330        -4.22141         1.33854
   C        6.23650        -6.49590         1.28007
   F        7.52302        -6.87028         1.39732
   C        5.25388        -7.44217         1.23985
   C        2.75059        -9.26904         1.27280
   C        1.62301       -10.01843         1.37410
   C        1.61039       -11.43290         1.47256
   S        3.08329       -12.36812         1.36520
   C        2.21513       -13.83078         1.58234
   C        0.87404       -13.62937         1.72566
   C        0.51987       -12.26270         1.66006
   C       -0.88548       -11.78424         1.84459
   C       -1.89405       -12.93214         1.74204
   C       -1.41442       -14.16117         2.54619
   O       -2.47239       -15.10121         2.51629
   C       -2.43086       -16.06976         3.53189
   C       -0.13110       -14.71833         1.92143
   N       -3.21915       -12.51047         2.15619
   C       -3.46877       -12.15982         3.46144
   C       -4.64618       -12.31228         4.08941
   C       -4.85978       -11.84146         5.42835
   C       -5.95116       -12.00952         6.18854
   C       -7.20007       -12.71538         5.75221
   C       -5.98551       -11.46336         7.59558
   N       -6.94688       -10.39123         7.74497
   C       -8.19399       -10.59144         8.25167
   C       -9.24354        -9.76419         8.07326
   C      -10.46446        -9.95386         8.72052
   C      -11.53203       -10.09170         9.27883
   C      -12.74519       -10.25308         9.94580
   N      -12.91161       -11.15973        10.95223
   C      -14.19175       -11.08680        11.43238
   C      -14.85489       -10.10741        10.70514
   C      -13.95315        -9.58740         9.77672
   C      -14.64597       -11.88961        12.47561
   C      -15.04432       -12.58010        13.38814
   C      -15.48339       -13.38590        14.44756
   C      -16.70168       -13.31294        14.98205
   H        6.18677         2.50293        -4.34394
   H        7.05340         0.95299        -3.86703
   H        3.64991         2.77896        -3.57540
   H        1.83877         1.48931        -2.27592
   H        0.57980        -0.07764        -1.01737
   H       -0.24772        -2.12364         0.29780
   H        0.37680        -4.40091         0.89650
   H        4.42651        -3.63946         1.10153
   H        5.51517        -8.48484         1.31357
   H        3.70757        -9.77311         1.27822
   H        0.66081        -9.52372         1.39013
   H        2.74646       -14.76166         1.59104
   H       -1.13587       -11.02621         1.09932
   H       -0.96509       -11.30875         2.82603
   H       -1.97806       -13.23887         0.69392
   H       -1.22183       -13.85659         3.58787
   H       -3.34199       -16.65605         3.42975
   H       -2.41010       -15.60095         4.52338
   H       -1.56465       -16.73302         3.43317
   H       -0.39062       -15.16414         0.95570
   H        0.29182       -15.50743         2.54678
   H       -3.94521       -13.09929         1.76969
   H       -2.64965       -11.67518         3.97541
   H       -5.45579       -12.81371         3.57992
   H       -4.01704       -11.31453         5.86295
   H       -7.33107       -12.67023         4.67479
   H       -8.07411       -12.26805         6.22446
   H       -7.16328       -13.76580         6.04719
   H       -4.99614       -11.08034         7.87057
   H       -6.25753       -12.25382         8.30192
   H       -6.86061        -9.65081         7.06213
   H       -8.28888       -11.45631         8.89610
   H       -9.16261        -8.90021         7.42551
   H      -12.19971       -11.78382        11.29377
   H      -15.87717        -9.81440        10.84399
   H      -14.14244        -8.81412         9.05829
   H      -14.75387       -14.09436        14.82463
   H      -17.43592       -12.61464        14.61705
   H      -16.99732       -13.95100        15.79700
*
