# ORCA input file
# SCF done       -171.324194721685          0.000397636926
! CAM-B3LYP def2-SVP def2/J RIJCOSX Grid4 TightSCF
%maxcore 5000
%tddft
    Mode sTDDFT
    Ethresh 5.0
    maxcore 5000
end

%pal
  nprocs 6
  end
* xyz 0 1
   C        3.08721        -0.03841        -8.35546
   C        3.42624        -0.23351        -7.07249
   C        3.90869         0.73441        -6.13201
   C        4.17435         0.23352        -4.90283
   C        3.92666        -1.15858        -4.77354
   S        3.33114        -1.81503        -6.28174
   C        4.11117        -1.94073        -3.65108
   C        4.59599        -1.55538        -2.38453
   C        4.66415        -2.58155        -1.48847
   C        4.24720        -3.83722        -1.98827
   S        3.74923        -3.65470        -3.65752
   C        4.16599        -4.96911        -1.19523
   C        3.78577        -6.28562        -1.43248
   S        3.39230        -7.21667         0.00150
   C        2.90115        -8.62142        -0.89998
   C        3.09879        -8.39028        -2.28530
   C        3.61946        -7.09849        -2.58525
   C        3.98638        -6.80382        -3.90535
   C        3.76998        -7.73227        -4.88940
   F        4.12783        -7.45230        -6.15367
   C        3.19617        -8.98135        -4.59822
   F        2.98918        -9.86294        -5.59085
   C        2.87270        -9.31806        -3.31080
   C        2.41517        -9.77033        -0.29147
   C        2.31146        -9.95299         1.07199
   C        1.83435       -11.10724         1.67671
   S        1.24697       -12.46797         0.75403
   C        0.90843       -13.42173         2.17638
   C        1.24144       -12.68714         3.34338
   C        1.75237       -11.39066         3.06390
   C        2.12161       -10.54211         4.11629
   C        1.98035       -10.98443         5.40524
   F        2.32931       -10.18203         6.42608
   C        1.47503       -12.26736         5.68175
   F        1.35226       -12.66256         6.96074
   C        1.10686       -13.11571         4.67077
   C        0.39842       -14.70971         2.10013
   C        0.04912       -15.34359         0.92504
   C       -0.42590       -16.64412         0.83864
   S       -0.56721       -17.68388         2.23391
   C       -1.16024       -19.03285         1.29878
   C       -1.25812       -18.66975        -0.07001
   C       -0.84439       -17.33509        -0.32780
   C       -0.88611       -16.82896        -1.63379
   C       -1.32854       -17.63957        -2.64608
   F       -1.37728       -17.16815        -3.90357
   C       -1.73557       -18.96114        -2.39157
   F       -2.16336       -19.72588        -3.41115
   C       -1.70384       -19.47890        -1.12333
   C       -1.46137       -20.25862         1.87398
   C       -1.32004       -20.55553         3.21624
   C       -1.61435       -21.79357         3.76386
   C       -1.46579       -22.11925         5.10162
   C       -1.74441       -23.36196         5.70399
   C       -1.49864       -23.40397         7.04697
   C       -1.01093       -22.19000         7.57391
   S       -0.87631       -20.99060         6.30462
   C       -0.66697       -21.91026         8.88235
   C       -0.72711       -22.79085         9.99410
   C       -0.32338       -22.24104        11.16361
   C        0.08885       -20.87260        11.06104
   S       -0.07398       -20.34181         9.37935
   C        0.53421       -20.07025        12.03955
   H        3.15944         0.93857        -8.79968
   H        2.73698        -0.84266        -8.97599
   H        4.03688         1.76297        -6.41877
   H        4.54316         0.81629        -4.07744
   H        4.87932        -0.54209        -2.16462
   H        5.00784        -2.47286        -0.47465
   H        4.37086        -4.76410        -0.14881
   H        4.45953        -5.87463        -4.16630
   H        2.46410       -10.29347        -3.10501
   H        2.10457       -10.58012        -0.93734
   H        2.63597        -9.15007         1.72001
   H        2.51138        -9.55436         3.93381
   H        0.72148       -14.09255         4.91198
   H        0.26527       -15.24725         3.02907
   H        0.14955       -14.79107         0.00057
   H       -0.58177       -15.81999        -1.85793
   H       -2.02319       -20.49471        -0.95892
   H       -1.82417       -21.03557         1.21474
   H       -0.95293       -19.78100         3.87862
   H       -1.98371       -22.57494         3.11161
   H       -2.11824       -24.19221         5.13071
   H       -1.65552       -24.27161         7.66202
   H       -1.06856       -23.80525         9.88844
   H       -0.29950       -22.75320        12.10893
   H        0.61821       -20.43133        13.04930
   H        0.81868       -19.05169        11.84992
*
