# ORCA input file
# SCF done       -214.910416618909          0.000626532439
! CAM-B3LYP def2-SVP def2/J RIJCOSX Grid4 TightSCF
%maxcore 5000
%tddft
    Mode sTDDFT
    Ethresh 5.0
    maxcore 5000
end

%pal
  nprocs 6
  end
* xyz 0 1
   C        3.46695        -5.24206         9.44080
   C        2.18797        -4.94042         8.98185
   C        1.70729        -5.44095         7.71708
   N        0.44363        -5.18802         7.31911
   C       -0.30401        -4.42708         8.06877
   C        0.19337        -3.87819         9.30820
   N        1.38993        -4.15814         9.73951
   C       -0.65271        -3.04206        10.08308
   N       -1.36777        -2.37462        10.67784
   C       -1.63558        -4.15758         7.66060
   N       -2.71379        -3.92824         7.35058
   C        2.52192        -6.22603         6.89188
   C        3.81023        -6.51080         7.34610
   C        4.27530        -6.02661         8.63106
   N        5.53465        -6.42296         8.87141
   S        6.05291        -7.28287         7.63660
   N        4.75417        -7.21496         6.70719
   C        2.03895        -6.68644         5.59565
   C        2.02842        -8.02889         5.20649
   C        2.44106        -9.10576         6.13398
   O        2.62630        -9.02769         7.31206
   S        2.56575       -10.62778         5.22096
   C        1.88559        -9.90057         3.72733
   O        1.75093       -10.56114         2.73676
   C        1.60117        -8.46544         3.94749
   C        1.06635        -7.55946         2.98997
   C        1.11302        -6.20881         3.39317
   C        1.57589        -5.79161         4.63209
   C        1.51386        -4.30948         4.66196
   O        1.86706        -3.54116         5.50215
   O        0.97708        -3.91084         3.46749
   C        0.71196        -4.98932         2.65149
   O        0.25469        -4.86161         1.55889
   C        0.52877        -7.87089         1.69913
   C       -0.06308        -9.03994         1.36152
   C       -0.56786        -9.33238         0.06027
   C       -0.91507       -10.61408        -0.32518
   O       -1.47960       -10.89426        -1.54183
   C       -1.63269        -9.82174        -2.37615
   C       -1.21345        -8.51261        -2.00249
   C       -1.42986        -7.59317        -2.97561
   S       -2.15161        -8.31382        -4.36401
   C       -2.16010        -9.86967        -3.62488
   O       -0.66800        -8.25220        -0.77896
   C       -0.64390       -11.75282         0.48799
   C       -1.02250       -13.02150         0.19889
   C       -0.69495       -14.11510         1.04897
   S       -1.42442       -15.67891         0.82261
   C       -0.62632       -16.33542         2.21094
   C        0.21956       -15.37448         2.79371
   C        0.15578       -14.13280         2.13242
   C        1.18751       -15.65955         3.84011
   O        1.59775       -16.73853         4.18410
   C        1.78441       -14.39207         4.53154
   F        0.83943       -13.49182         4.85518
   F        2.42123       -14.71299         5.65287
   F        2.66811       -13.75988         3.74043
   C       -0.97598       -17.64899         2.62161
   C       -0.92905       -18.10595         3.89882
   C       -1.31538       -19.42323         4.24261
   C       -1.39671       -19.87861         5.52613
   C       -1.70808       -21.22974         5.96061
   C       -2.15249       -22.26221         5.17650
   C       -2.45077       -23.55342         5.66209
   N       -2.71140       -24.62096         5.99314
   C       -2.40516       -22.18595         3.79041
   N       -2.64594       -22.20304         2.66787
   C       -1.49777       -21.29013         7.40216
   C       -1.14460       -19.99966         7.86898
   C       -1.11621       -19.05659         6.73616
   O       -0.92960       -17.86141         6.79772
   C       -0.88798       -19.73285         9.19207
   C       -0.97910       -20.79204        10.10043
   C       -1.32834       -22.08001         9.62561
   C       -1.59063       -22.34845         8.28821
   S       -1.38122       -23.24288        10.91490
   C       -0.94239       -22.00152        12.05849
   C       -0.76349       -20.77810        11.50513
  Br       -0.76069       -22.43810        13.87233
   H        3.80919        -4.86329        10.38919
   H        0.55851        -7.07068         0.97303
   H       -0.20852        -9.79881         2.10750
   H       -1.20920        -6.54662        -2.95122
   H       -2.54701       -10.72092        -4.14479
   H       -0.05662       -11.57868         1.37150
   H       -1.61485       -13.22988        -0.67992
   H        0.74907       -13.27911         2.40145
   H       -1.39486       -18.28528         1.85017
   H       -0.61113       -17.45990         4.70138
   H       -1.53033       -20.09874         3.42455
   H       -0.62406       -18.73787         9.51429
   H       -1.84979       -23.34667         7.97755
   H       -0.49028       -19.90110        12.06293
*
