# ORCA input file
# SCF done        -24.517965743865          0.000051622091
! B3LYP/G D3BJ Opt RIJCOSX def2-SVP def2/J
* xyz 0 1
   C        1.43947         1.21432         0.00129
   C        0.15270         0.78513         0.00039
   S       -1.39605         1.57652         0.00184
   C       -2.21164         0.01063        -0.00132
   C       -3.69965        -0.02117        -0.00133
   C       -1.36067        -1.03665        -0.00330
   C        0.01208        -0.64251        -0.00239
   C        1.22515        -1.26729        -0.00348
   S        2.51845        -0.13087        -0.00123
   H        1.82552         2.21254         0.00322
   H       -4.10168         0.98870        -0.00232
   H       -4.06925        -0.54371         0.88081
   H       -4.06921        -0.54558        -0.88236
   H       -1.68139        -2.06304        -0.00540
   H        1.44250        -2.31582        -0.00544
*
