# ORCA input file
# SCF done        -43.172947613534          0.000632473465
! B3LYP/G D3BJ Opt RIJCOSX def2-SVP def2/J
* xyz 0 1
   C       -0.37635        -1.14508        -0.43397
   C        0.84535        -0.58194        -0.58149
   C        0.94128         0.70702         0.01748
   C        2.14526         1.53772         0.00721
   C        2.04380         2.91916        -0.00912
   C        3.19096         3.71263        -0.01125
   C        4.43939         3.11339        -0.00039
   C        4.54438         1.72129         0.01451
   C        3.40479         0.93458         0.01835
   O        5.82215         1.24321         0.02574
   C        6.01753        -0.14935         0.03062
   O        2.97776         5.05725        -0.02643
   C        4.09506         5.91216        -0.01482
   C       -0.23713         1.06706         0.60586
   S       -1.45228        -0.13354         0.44915
   H       -0.72188        -2.09514        -0.79007
   H        1.64997        -1.04914        -1.11995
   H        1.08349         3.40670        -0.03755
   H        5.35550         3.67967        -0.00320
   H        3.47090        -0.14026         0.05201
   H        7.09681        -0.29561         0.03399
   H        5.59279        -0.61794        -0.86317
   H        5.58771        -0.61360         0.92407
   H        3.69217         6.92396        -0.02262
   H        4.72252         5.76548        -0.89958
   H        4.69951         5.76973         0.88659
   H       -0.45726         1.96369         1.14935
*
