# ORCA input file
# SCF done        -31.521629094822          0.000117754233
! B3LYP/G D3BJ Opt RIJCOSX def2-SVP def2/J
* xyz 0 1
   C       -0.12177        -1.36701        -0.00295
   C        1.10181        -0.73238        -0.00250
   C        1.22572         0.68630        -0.00031
   N        2.51480         1.13477        -0.00018
   C        3.34952         0.17501        -0.00206
   S        2.68844        -1.44641        -0.00435
   C        0.09555         1.49358         0.00148
   C       -1.12802         0.85895         0.00102
   C       -1.25194        -0.55973        -0.00116
   N       -2.54101        -1.00820        -0.00129
   C       -3.37574        -0.04844         0.00060
   S       -2.71465         1.57298         0.00287
   H       -0.21781        -2.43966        -0.00461
   H        4.41323         0.31295        -0.00234
   H        0.19159         2.56623         0.00313
   H       -4.43945        -0.18638         0.00086
*
