# ORCA input file
# SCF done        -21.912487708072          0.000762003041
! B3LYP/G D3BJ Opt RIJCOSX def2-SVP def2/J
* xyz 0 1
   C       -2.12005         0.39036         0.00405
   N       -1.61183        -0.78877         0.00386
   C       -0.26969        -0.71110         0.00222
   C        0.27212         0.57868         0.00114
   S       -0.99963         1.73654         0.00235
   N        1.61426         0.65636        -0.00050
   C        2.12248        -0.52278        -0.00076
   S        1.00206        -1.86896         0.00113
   H       -3.17632         0.57011         0.00528
   H        3.17875        -0.70252        -0.00194
*
