# ORCA input file
# SCF done        -39.155737180184          0.000446519996
! B3LYP/G D3BJ Opt RIJCOSX def2-SVP def2/J
* xyz 0 1
   C       -1.13204        -1.28931        -0.63718
   C       -2.29526        -0.66024        -0.29073
   O       -3.47541        -1.30650        -0.55630
   C       -4.29350        -1.59026         0.56921
   C       -2.29022         0.66368         0.29369
   O       -3.46605         1.30723         0.58420
   C       -4.30574         1.59255        -0.52482
   C       -1.12112         1.29503         0.61513
   C        0.08612         0.64506         0.30826
   C        0.08024        -0.63716        -0.35597
   N        1.33907        -0.98448        -0.54705
   O        2.07421         0.00625        -0.04579
   N        1.34811         0.99430         0.47317
   H       -1.14736        -2.26515        -1.09244
   H       -3.80555        -2.32756         1.21472
   H       -5.21260        -2.01139         0.16660
   H       -4.52075        -0.69698         1.15418
   H       -3.83709         2.34235        -1.17026
   H       -5.22340         1.99831        -0.10365
   H       -4.53147         0.70257        -1.11539
   H       -1.12855         2.27076         1.07084
*
