# ORCA input file
# SCF done        -44.902528617465          0.000491988597
! B3LYP/G D3BJ Opt RIJCOSX def2-SVP def2/J
* xyz 0 1
   C       -1.98039         0.93143        -0.00052
   C       -2.65442         2.11669        -0.00009
   C       -2.03505         3.38739        -0.00018
   N       -1.59066         4.44473        -0.00169
   C       -4.06302         2.23818         0.00286
   N       -5.19711         2.40763         0.00539
   C       -0.53315         0.75734        -0.00038
   C       -0.22405        -0.61686        -0.00060
   C        1.07938        -1.07459        -0.00035
   C        2.08050        -0.11579         0.00018
   C        1.80592         1.24603         0.00052
   C        0.49548         1.69317         0.00022
   F        3.36101        -0.51142         0.00032
   C       -1.46942        -1.40993        -0.00091
   O       -1.58689        -2.60978        -0.00119
   C       -2.58078        -0.40495        -0.00081
   C       -3.86147        -0.78083        -0.00103
   H        1.30606        -2.12890        -0.00051
   H        2.62669         1.94597         0.00107
   H        0.29463         2.75191         0.00054
   H       -4.08650        -1.83607        -0.00073
   H       -4.69129        -0.09655        -0.00059
*
