# ORCA input file
# SCF done        -41.785273060060          0.000709626317
! B3LYP/G D3BJ Opt RIJCOSX def2-SVP def2/J
* xyz 0 1
   C       -0.10772         0.63817        -0.00051
   C       -1.35584         1.18469         0.00152
   S       -2.56250        -0.04488        -0.00001
   C       -1.38651        -1.32988        -0.00324
   C       -1.78565        -2.75528        -0.00532
   C       -0.13149        -0.79652        -0.00333
   C        1.23448        -1.31476        -0.00614
   O        1.61405        -2.46166        -0.00828
   C        2.11282        -0.09046        -0.00516
   C        1.25988         1.10348        -0.00085
   C        1.65568         2.40967         0.00392
   C        0.71603         3.46369         0.01067
   N       -0.03966         4.32626         0.01632
   C        2.99522         2.85059         0.00499
   N        4.06582         3.26338         0.00590
   C        3.44368        -0.18322        -0.00932
   H       -1.65070         2.21497         0.00357
   H       -2.86725        -2.85881        -0.00708
   H       -1.37652        -3.25704         0.87154
   H       -1.37363        -3.25530        -0.88180
   H        3.89409        -1.16316        -0.01413
   H        4.10203         0.66756        -0.01114
*
