# ORCA input file
# SCF done        -43.772262807457          0.000613596918
! B3LYP/G D3BJ Opt RIJCOSX def2-SVP def2/J
* xyz 0 1
   C        3.51819        -0.20013         0.00652
   C        2.59115        -1.17541        -0.04877
   C        1.25635        -0.67369        -0.03353
   C        1.22765         0.74134         0.03211
   S        2.84350         1.39194         0.08007
   C        0.04010         1.45347         0.07082
   S       -0.01567         3.22596         0.18029
   C        0.79357         3.69256        -1.38309
   C       -1.15349         0.72720         0.06307
   C       -1.12474        -0.68783        -0.00259
   C        0.06280        -1.39997        -0.04101
   S        0.11819        -3.17252        -0.14917
   C       -0.68914        -3.63661         1.41593
   S       -2.74052        -1.33851        -0.05084
   C       -3.41528         0.25349         0.02301
   C       -2.48830         1.22884         0.07804
   H        4.58602        -0.29930         0.01211
   H        2.81475        -2.22528        -0.09904
   H        0.74218         4.77527        -1.42904
   H        0.24525         3.25404        -2.21154
   H        1.82877         3.36757        -1.38498
   H       -0.63696        -4.71922         1.46396
   H       -1.72458        -3.31223         1.41826
   H       -0.14018        -3.19615         2.24300
   H       -4.48311         0.35265         0.01733
   H       -2.71196         2.27870         0.12810
*
