# ORCA input file
# SCF done        -30.340483081016          0.000297245175
! B3LYP/G D3BJ Opt RIJCOSX def2-SVP def2/J
* xyz 0 1
   C       -0.77843         1.14162        -0.00486
   C        0.60150         1.23048        -0.05361
   O        1.31396         2.39178        -0.10422
   C        0.60922         3.60647        -0.10135
   C        1.37273         0.04604        -0.05273
   O        2.72300         0.22776        -0.10304
   C        3.54862        -0.90822        -0.10303
   C        0.73324        -1.17994        -0.00255
   C       -0.65341        -1.25128         0.04542
   C       -1.40463        -0.09759         0.04409
   H       -1.38327         2.03446        -0.00431
   H        1.36808         4.38618        -0.14713
   H        0.01972         3.73012         0.81385
   H       -0.05068         3.69424        -0.97141
   H        4.56857        -0.52979        -0.15237
   H        3.35879        -1.54721        -0.97241
   H        3.42638        -1.49734         0.81263
   H        1.30511        -2.09424         0.00014
   H       -1.13296        -2.21746         0.08397
   H       -2.48227        -0.14528         0.08139
*
