# ORCA input file
# SCF done        -26.648017569917          0.000139904943
! B3LYP/G D3BJ Opt RIJCOSX def2-SVP def2/J
* xyz 0 1
   C        1.33964        -1.21518        -0.00335
   C        0.01276        -0.81463        -0.00274
   C       -0.30978         0.54159        -0.00162
   C        0.69472         1.49660        -0.00110
   C        2.01757         1.09142        -0.00163
   C        2.33846        -0.25786        -0.00275
   S       -2.01706         0.94549        -0.00082
   C       -2.60807        -0.72145        -0.00102
   S       -1.32991        -1.94387        -0.00322
   C       -3.90066        -1.02887         0.00007
   H        1.57633        -2.26752        -0.00421
   H        0.43233         2.54283        -0.00022
   H        2.80080         1.83358        -0.00113
   H        3.37193        -0.56797        -0.00312
   H       -4.65306        -0.26178         0.00097
   H       -4.22714        -2.05258        -0.00051
*
