# ORCA input file
# SCF done        -38.611570543727          0.000565048367
! B3LYP/G D3BJ Opt RIJCOSX def2-SVP def2/J
* xyz 0 1
   C       -0.05872         0.59233        -0.00137
   C       -1.31888         1.11381         0.00152
   S       -2.50117        -0.13663        -0.00157
   C       -1.30457        -1.37666        -0.00627
   C       -0.05611        -0.84251        -0.00586
   C        1.32605        -1.33353        -0.00916
   O        1.72966        -2.46981        -0.01217
   C        2.17698        -0.09055        -0.00696
   C        1.29986         1.08576        -0.00168
   C        1.66824         2.39930         0.00384
   C        0.70647         3.43375         0.01189
   N       -0.06733         4.28003         0.01860
   C        2.99873         2.86804         0.00526
   N        4.06029         3.30288         0.00635
   C        3.50968        -0.15601        -0.01110
   H       -1.63120         2.13899         0.00477
   H       -1.59649        -2.40769        -0.00934
   H        3.98074        -1.12615        -0.01700
   H        4.14990         0.70852        -0.01201
*
