# ORCA input file
# SCF done        -26.648879078863          0.000187458218
! B3LYP/G D3BJ Opt RIJCOSX def2-SVP def2/J
* xyz 0 1
   C       -1.33161         0.25684        -0.00090
   C       -0.37999         1.22600         0.00506
   C        0.92756         0.70463         0.00251
   C        0.96090        -0.66516        -0.00540
   S       -0.65216        -1.32217        -0.00980
   C        2.10135        -1.52539        -0.01001
   C        2.13469        -2.89518        -0.01772
   C        3.44224        -3.41655        -0.02041
   C        4.39387        -2.44739        -0.01481
   S        3.71441        -0.86838        -0.00607
   H       -2.39768         0.36688        -0.00067
   H       -0.60245         2.27806         0.01105
   H        1.81849         1.30724         0.00631
   H        1.24376        -3.49780        -0.02126
   H        3.66470        -4.46861        -0.02631
   H        5.45993        -2.55743        -0.01528
*
