# ORCA input file
# SCF done        -43.848469657614          0.000493965796
! B3LYP/G D3BJ Opt RIJCOSX def2-SVP def2/J
* xyz 0 1
   C       -1.13199        -1.41118         0.00083
   C       -1.21089        -2.77256         0.00243
   C       -2.41848        -3.50693         0.00336
   N       -3.35761        -4.16560         0.00381
   C       -0.09331        -3.63738         0.00385
   N        0.77247        -4.39009         0.00601
   C        0.08766        -0.61274        -0.00006
   C       -0.24651         0.75661         0.00184
   C        0.73494         1.73031         0.00156
   C        2.06197         1.33181        -0.00112
   C        2.41374        -0.01691        -0.00352
   C        1.41940        -0.99448        -0.00283
   C        3.84847        -0.43663        -0.00705
   C       -1.70744         0.91564         0.00312
   O       -2.35136         1.93757         0.00557
   C       -2.26147        -0.47918         0.00173
   C       -3.57545        -0.71037         0.00030
   H        0.45983         2.77375         0.00321
   H        2.84206         2.07889        -0.00147
   H        1.70447        -2.03449        -0.00472
   H        4.51168         0.42391        -0.00600
   H        4.06041        -1.04224        -0.88708
   H        4.06353        -1.04693         0.86895
   H       -4.24560         0.13506        -0.00114
   H       -4.01533        -1.69187        -0.00377
*
