# ORCA input file
# SCF done        -24.232087032230          0.000475703728
! B3LYP/G D3BJ Opt RIJCOSX def2-SVP def2/J
* xyz 0 1
   C       -0.95196         1.40301         0.00083
   C       -2.07579         0.61841        -0.00054
   N       -2.07767        -0.72656        -0.00160
   C       -0.95330        -1.38228        -0.00136
   C        0.28408        -0.70890         0.00000
   C        0.27947         0.72961         0.00113
   N        1.51731         1.23222         0.00236
   S        2.56063         0.01373         0.00208
   N        1.52232        -1.20759         0.00046
   H       -0.99471         2.47943         0.00165
   H       -3.06176         1.06255        -0.00086
   H       -1.00177        -2.46181        -0.00222
*
