# ORCA input file
# SCF done        -36.317929856974          0.000897270836
! B3LYP/G D3BJ Opt RIJCOSX def2-SVP def2/J
* xyz 0 1
   N        0.70683         1.15359        -0.51171
   C        1.38789         2.43398        -0.46032
   C       -0.66135         1.15531        -0.46765
   S       -1.48700         2.57580        -0.35381
   N       -1.33740        -0.03391        -0.51814
   C       -2.78731         0.00885        -0.47438
   C       -0.73279        -1.27588        -0.60457
   O       -1.38404        -2.29516        -0.63985
   C        0.74353        -1.26225        -0.64978
   C        1.48652         0.01352        -0.60123
   O        2.69462         0.07467        -0.63600
   C        1.41418        -2.41640        -0.73640
   H        1.06565         3.06181        -1.29013
   H        2.45571         2.24102        -0.52751
   H        1.15674         2.94347         0.47472
   H       -3.16844         0.59791        -1.30825
   H       -3.12042         0.46449         0.45816
   H       -3.14825        -1.01505        -0.54105
   H        0.88466        -3.35350        -0.77227
   H        2.49067        -2.42036        -0.77126
*
