# ORCA input file
# SCF done        -71.055549447811          0.000656548246
! B3LYP/G D3BJ Opt RIJCOSX def2-SVP def2/J
* xyz 0 1
   C        3.50447        -0.39286        -0.12373
   C        2.54033        -1.33416        -0.13465
   C        1.22449        -0.78275        -0.10050
   C       -0.00491        -1.46330        -0.09116
   C       -0.05935        -2.91154        -0.02925
   C        0.67508        -3.74276         0.76562
   C        0.36135        -5.10452         0.56387
   C       -0.59649        -5.32963        -0.38071
   S       -1.14502        -3.82545        -1.03882
   C       -1.16784        -6.62322        -0.83422
  Cl        1.13526        -6.36875         1.44292
   C       -1.15273        -0.67708        -0.13111
   C       -1.12264         0.73671        -0.12734
   C        0.10601         1.41705        -0.08249
   C        1.25441         0.63117        -0.09626
   S        2.89331         1.22446        -0.07661
   C        0.15589         2.86523        -0.01363
   C       -0.59902         3.69033         0.76830
   C       -0.29093         5.05436         0.57398
   C        0.68273         5.28697        -0.35248
   S        1.25495         3.78740        -1.00065
   C        1.24960         6.58603        -0.79546
  Cl       -1.09057         6.31297         1.43798
   C       -2.43685         1.28910        -0.19301
   C       -3.40121         0.34817        -0.21234
   S       -2.79201        -1.26986        -0.15903
   H        4.56705        -0.53654        -0.14675
   H        2.73792        -2.38866        -0.18779
   H        1.38428        -3.40325         1.49765
   H       -0.49533        -7.43609        -0.57027
   H       -1.32102        -6.61745        -1.91128
   H       -2.13187        -6.80342        -0.35700
   H       -1.32017         3.34474         1.48567
   H        0.54912         7.38806        -0.57471
   H        1.45432         6.56978        -1.86369
   H        2.18530         6.79278        -0.27488
   H       -2.63240         2.34391        -0.24618
   H       -4.46276         0.49244        -0.26329
*
