# ORCA input file
# SCF done        -35.208623270619          0.000987115292
! B3LYP/G D3BJ Opt RIJCOSX def2-SVP def2/J
* xyz 0 1
   C       -1.33705        -1.07885        -0.00218
   C       -0.02520        -0.71123        -0.00164
   C        0.02316         0.73223         0.00052
   C       -1.33790         1.22105         0.00129
   O       -1.81982         2.33145         0.00296
   N       -2.11723         0.03610        -0.00046
   C       -3.55355         0.06059        -0.00051
   C        1.33555         1.09990         0.00085
   N        2.11574        -0.01317        -0.00096
   C        1.33749        -1.19917        -0.00260
   O        1.82075        -2.30830        -0.00439
   C        3.55298        -0.04688        -0.00133
   H       -1.78006        -2.05827        -0.00365
   H       -3.85626         1.10774         0.00055
   H       -3.95207        -0.43144         0.88883
   H       -3.95194        -0.42963        -0.89090
   H        1.77501         2.08109         0.00223
   H        3.94449         0.96771        -0.00144
   H        3.91151        -0.57877        -0.88494
   H        3.91214        -0.57878         0.88203
*
