# ORCA input file
# SCF done        -36.852676651416          0.000807413311
! B3LYP/G D3BJ Opt RIJCOSX def2-SVP def2/J
* xyz 0 1
   S       -1.60756        -0.07433         0.42772
   C       -0.33808        -1.42765         0.29887
   C       -0.38735        -2.27951         1.56550
   C       -0.62768        -2.26600        -0.94462
   C        0.95760        -0.70603         0.17758
   C        0.91118         0.63710         0.18789
   C       -0.42418         1.19433         0.32164
   C       -0.75748         2.51785         0.36444
   C        0.17317         3.57369         0.29010
   N        0.87811         4.47703         0.24407
   C       -2.10531         2.91785         0.49248
   N       -3.20347         3.23131         0.59390
   C        2.07561         1.43351         0.07265
   N        3.06133         2.00680        -0.02397
   H       -1.36996        -2.73300         1.67072
   H       -0.18837        -1.67204         2.44585
   H        0.35833        -3.06974         1.51020
   H       -1.60584        -2.73289        -0.85887
   H        0.12398        -3.04549        -1.05009
   H       -0.61513        -1.64547        -1.83825
   H        1.87092        -1.27032         0.08642
*
