# ORCA input file
# SCF done        -33.087028608123          0.000803810944
! B3LYP/G D3BJ Opt RIJCOSX def2-SVP def2/J
* xyz 0 1
   C        0.08599         1.56316        -0.01845
   C       -1.17935         0.77797        -0.00063
   N       -2.36692         1.34426        -0.00188
   S       -3.50941         0.19232         0.01931
   N       -2.49693        -1.07551         0.03254
   C       -1.25554        -0.63990         0.01954
   C       -0.08162        -1.55631         0.02592
   C        1.18371        -0.77117         0.00449
   C        1.25989         0.64670        -0.01568
   N        2.50126         1.08226        -0.03191
   S        3.51370        -0.18564        -0.02398
   N        2.37125        -1.33750         0.00251
   H        0.12718         2.22898         0.84945
   H        0.11529         2.20887        -0.90183
   H       -0.12300        -2.22624        -0.83875
   H       -0.11067        -2.19783         0.91241
*
