# ORCA input file
# SCF done        -59.750703316397          0.000500134563
! B3LYP/G D3BJ Opt RIJCOSX def2-SVP def2/J
* xyz 0 1
   N        0.74955         1.11913        -1.23399
   C        1.39156         2.40568        -1.26822
   C        1.51372         3.07395        -2.47541
   C        2.14844         4.30217        -2.50769
   C        2.66363         4.84904        -1.34442
   C        2.54506         4.16911        -0.14457
   C        1.90719         2.94186        -0.10078
   C       -0.61597         1.07927        -1.30276
   S       -1.50359         2.46534        -1.31686
   N       -1.22602        -0.14458        -1.34299
   C       -2.65674        -0.18377        -1.48512
   C       -3.44388        -0.46532        -0.38184
   C       -4.81825        -0.52875        -0.53030
   C       -5.39450        -0.31251        -1.77008
   C       -4.59815        -0.03498        -2.86848
   C       -3.22341         0.02578        -2.73160
   C       -0.58219        -1.36559        -1.22771
   O       -1.19985        -2.40440        -1.25383
   C        0.88772        -1.29121        -1.07723
   C        1.57958         0.01545        -1.11864
   O        2.78054         0.13922        -1.05919
   C        1.59562        -2.41384        -0.91270
   H        1.10777         2.63729        -3.37557
   H        2.24173         4.83013        -3.44444
   H        3.15996         5.80728        -1.37388
   H        2.94889         4.59323         0.76210
   H        1.80911         2.40183         0.82868
   H       -2.98260        -0.63300         0.57954
   H       -5.43773        -0.74714         0.32620
   H       -6.46719        -0.36110        -1.88144
   H       -5.04623         0.13246        -3.83601
   H       -2.59173         0.24105        -3.58031
   H        1.10131        -3.37045        -0.88487
   H        2.66658        -2.37332        -0.80565
*
