# ORCA input file
# SCF done        -69.722177433451          0.000783167287
! B3LYP/G D3BJ Opt RIJCOSX def2-SVP def2/J
* xyz 0 1
   C        2.42131        -1.34472        -0.03224
   C        1.17708        -0.77558        -0.01124
   C       -0.07490        -1.53445        -0.02575
   O       -0.13715        -2.74171        -0.04931
   C       -1.27556        -0.65890        -0.00891
   C       -1.20960         0.76285         0.02903
   C       -2.46182         1.32901         0.03651
   S       -3.72707         0.16757        -0.00214
   C       -2.57492        -1.10637        -0.02869
   C       -3.05828        -2.52496        -0.07158
   F       -2.67837        -3.23203         0.99432
   F       -4.40344        -2.56161        -0.08939
   F       -2.65087        -3.17550        -1.16330
   C       -2.81300         2.78604         0.07292
   F       -2.34334         3.45695        -0.98044
   F       -4.14902         2.94612         0.05828
   F       -2.37538         3.39462         1.17761
   C        0.06733         1.52346         0.05548
   O        0.11710         2.73078         0.09696
   C        1.24354         0.65198         0.02543
   C        2.53531         1.10319         0.02967
   S        3.66911        -0.17600        -0.01092
   H        2.64552        -2.39306        -0.06039
   H        2.85656         2.12607         0.05359
*
