# ORCA input file
# SCF done        -59.703972346376          0.000386233674
! B3LYP/G D3BJ Opt RIJCOSX def2-SVP def2/J
* xyz 0 1
   C        1.85389         1.37416         0.06122
   C        2.27428         0.05591         0.03667
   C        1.34437        -0.97793         0.00704
   C        0.00673        -0.66346        -0.00343
   C       -0.41925         0.67158         0.02523
   C        0.50615         1.70274         0.05632
   N       -1.79466         0.72554         0.01421
   C       -2.59608         1.91364        -0.00634
   C       -2.34094        -0.54762        -0.02761
   C       -1.20657        -1.56786        -0.01744
   C       -1.32144        -2.40458        -1.27691
   C       -0.72719        -1.98463        -2.45977
   C       -0.88414        -2.71554        -3.62422
   C       -1.64360        -3.87220        -3.62420
   C       -2.24741        -4.29209        -2.45134
   C       -2.09032        -3.56248        -1.28701
   C       -1.16529        -2.41137         1.24219
   C       -1.81084        -2.00885         2.40327
   C       -1.71176        -2.76092         3.56094
   C       -0.95639        -3.91984         3.57757
   C       -0.29719        -4.32094         2.42769
   C       -0.39851        -3.57146         1.27036
   C       -3.63895        -0.83191        -0.08674
   H        2.58682         2.16743         0.08446
   H        3.32915        -0.17251         0.03995
   H        1.66936        -2.00700        -0.01312
   H        0.20280         2.73865         0.07595
   H       -1.95520         2.78726         0.07688
   H       -3.29927         1.91399         0.83138
   H       -3.16614         1.98093        -0.93828
   H       -0.13442        -1.08130        -2.47053
   H       -0.41247        -2.37739        -4.53555
   H       -1.76642        -4.44247        -4.53323
   H       -2.84514        -5.19208        -2.44238
   H       -2.56180        -3.90065        -0.37568
   H       -2.40263        -1.10562         2.40299
   H       -2.22699        -2.43757         4.45402
   H       -0.87999        -4.50676         4.48106
   H        0.29924        -5.22183         2.43199
   H        0.11313        -3.89611         0.37593
   H       -4.39868        -0.07258        -0.10668
   H       -3.97302        -1.85138        -0.11703
*
