# ORCA input file
# SCF done        -48.797986816435          0.000611211844
! B3LYP/G D3BJ Opt RIJCOSX def2-SVP def2/J
* xyz 0 1
   C        0.51748         1.87095        -0.00413
   C        1.85623         1.51539        -0.00593
   C        2.24102         0.18081        -0.00494
   C        1.29704        -0.83288        -0.00262
   C       -0.04914        -0.49307        -0.00106
   C       -0.44119         0.86664        -0.00145
   C       -1.88998         0.94665         0.00141
   C       -2.63560         2.08903         0.00304
   C       -2.09223         3.39482         0.00171
   N       -1.72338         4.48098         0.00083
   C       -4.04729         2.15875         0.00329
   N       -5.18485         2.30770         0.00270
   C       -2.40083        -0.43473         0.00246
   C       -1.23291        -1.33215         0.00171
   C       -1.25601        -2.69608         0.00296
   C       -2.41357        -3.50729         0.00655
   N       -3.29545        -4.24112         0.00958
   C       -0.10099        -3.51222         0.00020
   N        0.78962        -4.23481        -0.00181
   C       -3.68617        -0.80549         0.00495
   H        0.23678         2.91096        -0.00476
   H        2.60881         2.28878        -0.00811
   H        3.28984        -0.07313        -0.00611
   H        1.61298        -1.86278        -0.00188
   H       -4.48568        -0.08677         0.00532
   H       -3.97963        -1.83971         0.00590
*
