# ORCA input file
# SCF done        -39.609874647580          0.000326753273
! B3LYP/G D3BJ Opt RIJCOSX def2-SVP def2/J
* xyz 0 1
   N       -0.01250        -1.31753        -0.00176
   C       -1.24998        -0.66837        -0.00114
   C       -1.37522         0.72898        -0.00145
   S       -0.00446         1.84378        -0.00297
   C        1.36490         0.73119        -0.00166
   C        2.60869         1.34062        -0.00119
   C        3.77051         0.59147        -0.00066
   C        3.65989        -0.78335        -0.00055
   C        2.41591        -1.39329        -0.00081
   C        1.22265        -0.66139        -0.00139
   C       -2.60969         1.35796        -0.00080
   C       -3.78496         0.63162        -0.00002
   C       -3.69417        -0.74447         0.00021
   C       -2.46005        -1.37215        -0.00024
   C        0.06208        -2.76320        -0.00156
   H        2.64641         2.41959        -0.00134
   H        4.73384         1.07590        -0.00039
   H        4.54380        -1.40332        -0.00024
   H        2.40693        -2.46829        -0.00059
   H       -2.62773         2.43755        -0.00102
   H       -4.74009         1.13155         0.00038
   H       -4.58625        -1.35253         0.00075
   H       -2.48413        -2.44833         0.00014
   H       -0.91999        -3.21415        -0.00258
   H        0.58580        -3.11601         0.89111
   H        0.58747        -3.11604        -0.89321
*
