# ORCA input file
# SCF done        -65.824026990659          0.000948647679
! B3LYP/G D3BJ Opt RIJCOSX def2-SVP def2/J
* xyz 0 1
   C       -1.27852         0.29501         0.66519
   C       -0.41229        -0.47514         1.42471
   C        0.93968        -0.48699         1.14065
   C        1.44743         0.27206         0.08810
   C        0.57156         1.06006        -0.65571
   C       -0.78155         1.06469        -0.37329
   C        2.88864         0.28048        -0.21597
   C        3.47447         1.61361        -0.43307
   C        4.32490         1.86139        -1.50889
   C        4.84995         3.12350        -1.71071
   C        4.53499         4.15780        -0.84443
   C        3.68038         3.92500         0.22040
   C        3.14777         2.66557         0.42099
   C        3.61717        -0.85505        -0.28819
   C        2.99900        -2.19143        -0.25349
   C        1.88367        -2.48970        -1.03342
   C        1.32450        -3.75274        -1.00222
   C        1.86915        -4.73783        -0.19519
   C        2.98644        -4.45582         0.57283
   C        3.55215        -3.19524         0.53916
   C        5.08518        -0.85020        -0.40276
   C        5.86850        -0.03575         0.41284
   C        7.24626        -0.06182         0.31269
   C        7.86415        -0.89976        -0.60116
   C        7.09525        -1.72186        -1.40810
   C        5.71706        -1.70360        -1.30524
   H       -2.33594         0.29927         0.88570
   H       -0.79254        -1.06680         2.24458
   H        1.61375        -1.07813         1.74241
   H        0.95829         1.65932        -1.46794
   H       -1.45146         1.67229        -0.96479
   H        4.56333         1.06040        -2.19341
   H        5.50619         3.30268        -2.55012
   H        4.94951         5.14270        -1.00195
   H        3.42652         4.72902         0.89626
   H        2.48183         2.48447         1.25323
   H        1.46284        -1.72740        -1.67272
   H        0.46076        -3.97093        -1.61288
   H        1.42800        -5.72338        -0.16940
   H        3.41923        -5.22162         1.19961
   H        4.42247        -2.97509         1.14129
   H        5.39055         0.61026         1.13475
   H        7.84220         0.57199         0.95321
   H        8.94127        -0.91642        -0.68001
   H        7.57179        -2.38155        -2.11885
   H        5.11776        -2.34524        -1.93620
*
