# ORCA input file
# SCF done        -37.677995497955          0.000994731768
! B3LYP/G D3BJ Opt RIJCOSX def2-SVP def2/J
* xyz 0 1
   C       -0.36487        -1.08449         0.33573
   C       -0.55108        -1.89078         1.62461
   C       -0.86572        -1.86768        -0.88180
   C        1.04688        -0.61742         0.16383
   C        1.07760         0.72754         0.17513
   C       -0.29731         1.19190         0.35113
   C       -0.74868         2.47604         0.42038
   C        0.10755         3.59243         0.33420
   N        0.76456         4.52930         0.27181
   C       -2.12304         2.75540         0.58826
   N       -3.23757         2.98466         0.72190
   O       -1.11522         0.13605         0.44044
   C        2.21849         1.54418         0.03997
   N        3.17957         2.15465        -0.07642
   H        0.00995        -2.81875         1.56595
   H       -1.60552        -2.11491         1.75905
   H       -0.20387        -1.31744         2.48157
   H       -0.31698        -2.80003        -0.97524
   H       -0.73160        -1.28190        -1.78854
   H       -1.92362        -2.08243        -0.75922
   H        1.87594        -1.28901         0.05216
*
