# ORCA input file
# SCF done        -38.423931787883          0.000818697971
! B3LYP/G D3BJ Opt RIJCOSX def2-SVP def2/J
* xyz 0 1
   C       -0.91215        -1.62638        -0.08845
   C       -2.20390        -1.15175        -0.08192
   O       -3.14336        -2.12346        -0.20642
   C       -4.52856        -1.86192        -0.22098
   C       -2.45487         0.26161         0.04923
   O       -3.76220         0.65638         0.05064
   C       -4.05686         2.02475         0.19730
   C       -1.41256         1.14637         0.16579
   C       -0.09378         0.66946         0.16149
   C        0.16212        -0.73926         0.03301
   N        1.46508        -1.01672         0.04913
   S        2.27805         0.36532         0.21046
   N        1.02590         1.38121         0.26750
   H       -0.74277        -2.68532        -0.18677
   H       -4.99379        -2.84159        -0.33216
   H       -4.81476        -1.22721        -1.06202
   H       -4.86668        -1.40396         0.71067
   H       -3.65701         2.61223        -0.63425
   H       -3.67241         2.41934         1.14238
   H       -5.14378         2.08755         0.19474
   H       -1.56945         2.20691         0.26188
*
