# ORCA input file
# SCF done        -49.120619144317          0.000711234648
! B3LYP/G D3BJ Opt RIJCOSX def2-SVP def2/J
* xyz 0 1
   C       -1.65107        -1.43506         0.21564
   C       -1.05056        -0.18797         0.27054
   F       -1.75560         0.85091         0.72423
   C        0.27255         0.00891        -0.13633
   F        0.80868         1.22988        -0.06587
   C        1.02935        -1.04922        -0.61002
   C        0.43171        -2.29477        -0.66487
   C       -0.89978        -2.50252        -0.25898
   C       -1.24995        -3.90820        -0.43222
   C       -2.45555        -4.48105        -0.15811
   C       -3.57442        -3.78124         0.35021
   N       -4.51290        -3.26710         0.76147
   C       -2.75203        -5.85136        -0.34506
   N       -3.05459        -6.95000        -0.47242
   C       -0.06581        -4.58885        -0.96178
   C        1.02018        -3.56949        -1.12373
   O        2.13339        -3.76541        -1.54092
   C        0.12954        -5.87180        -1.27472
   H       -2.67371        -1.53450         0.54109
   H        2.05045        -0.90246        -0.92459
   H       -0.61718        -6.63874        -1.17085
   H        1.09581        -6.16565        -1.65401
*
