# ORCA input file
# SCF done        -52.270780222709          0.000295317748
! B3LYP/G D3BJ Opt RIJCOSX def2-SVP def2/J
* xyz 0 1
   C       -0.79921         0.86621        -0.70211
   C        0.57305         0.93921        -0.83981
   C        1.39956         0.08080        -0.11443
   C        0.81786        -0.85138         0.74509
   C       -0.55579        -0.92170         0.86985
   C       -1.37155        -0.06398         0.15017
   N        2.78967         0.14976        -0.24946
   C        3.42073         1.38581        -0.41833
   C        2.94980         2.51890         0.24564
   C        3.57656         3.73764         0.07432
   C        4.68386         3.84876        -0.75072
   C        5.15869         2.72601        -1.40890
   C        4.53399         1.50448        -1.25069
   C        3.55210        -1.02536        -0.22033
   C        3.08107        -2.19250        -0.81897
   C        3.83502        -3.34854        -0.78251
   C        5.07767        -3.37813        -0.16130
   C        5.54365        -2.20989         0.43027
   C        4.79556        -1.04999         0.40919
   C        5.90477        -4.62781        -0.14985
   H       -1.42706         1.53526        -1.27231
   H        1.01540         1.65868        -1.51343
   H        1.45154        -1.51569         1.31438
   H       -0.99237        -1.64669         1.54130
   H       -2.44471        -0.12015         0.25245
   H        2.09280         2.43424         0.89789
   H        3.20175         4.60609         0.59589
   H        5.17266         4.80248        -0.87977
   H        6.01828         2.80329        -2.05863
   H        4.90118         0.63308        -1.77303
   H        2.12049        -2.18646        -1.31325
   H        3.45326        -4.24350        -1.25308
   H        6.50479        -2.21055         0.92466
   H        5.16917        -0.15434         0.88380
   H        5.27340        -5.51172        -0.20314
   H        6.51307        -4.68152         0.75034
   H        6.57577        -4.64042        -1.00986
*
