# ORCA input file
# SCF done        -35.666252288321          0.000863978273
! B3LYP/G D3BJ Opt RIJCOSX def2-SVP def2/J
* xyz 0 1
   C       -0.12336        -1.31525        -0.00520
   C       -0.43042        -2.64935        -0.00768
   C       -1.70946        -3.23449        -0.00823
   N       -2.71907        -3.78164        -0.00974
   C        0.61922        -3.59632        -0.00984
   N        1.46175        -4.37353        -0.01131
   N       -0.95921        -0.23976        -0.00286
   C       -2.40642        -0.27582        -0.00155
   C       -0.35861         1.00743        -0.00308
   O       -0.97887         2.04030        -0.00184
   C        1.11388         0.87568        -0.00474
   S        1.56399        -0.82201        -0.00549
   C        1.94890         1.91150        -0.00566
   H       -2.76929        -1.29718         0.01391
   H       -2.77548         0.23518        -0.89233
   H       -2.77271         0.26132         0.87473
   H        1.54568         2.91028        -0.00493
   H        3.01724         1.79216        -0.00638
*
