# ORCA input file
# SCF done        -27.940099960599          0.000728587728
! B3LYP/G D3BJ Opt RIJCOSX def2-SVP def2/J
* xyz 0 1
   C       -2.46842         0.11198        -0.00113
   C       -1.58015         1.12607         0.00042
   C       -0.22738         0.66972         0.00105
   C        0.95052         1.41157         0.00251
   C        2.16730         0.74409         0.00275
   C        2.22563        -0.66082         0.00165
   C        1.06850        -1.40521         0.00019
   C       -0.15073        -0.73962        -0.00015
   S       -1.73268        -1.45710        -0.00197
   C        3.37129         1.48530         0.00374
   N        4.34743         2.08694         0.00446
   H       -3.53943         0.17212        -0.00184
   H       -1.85218         2.16625         0.00115
   H        0.91735         2.49095         0.00343
   H        3.18984        -1.14600         0.00192
   H        1.10161        -2.48354        -0.00063
*
