# ORCA input file
# SCF done        -61.105658546571          0.000735850685
! B3LYP/G D3BJ Opt RIJCOSX def2-SVP def2/J
* xyz 0 1
   C       -0.27940        -1.16280         0.48883
   C       -0.39403        -1.84917         1.84414
   C        0.71067        -2.31100         2.54312
   C        0.53641        -2.94457         3.76255
   C       -0.73209        -3.10996         4.28934
   C       -1.83404        -2.63934         3.59445
   C       -1.66784        -2.01469         2.37263
   C       -0.82492        -2.11493        -0.57396
   C       -1.91229        -1.76583        -1.35844
   C       -2.38823        -2.65426        -2.30818
   C       -1.77970        -3.88457        -2.47952
   C       -0.69416        -4.23283        -1.69245
   C       -0.21668        -3.35251        -0.73962
   C        1.08842        -0.70293         0.10452
   C        1.07999         0.63453        -0.05537
   C       -0.27340         1.09645         0.22880
   C       -0.75948         2.37037         0.19627
   C        0.04007         3.48605        -0.11976
   N        0.65176         4.42251        -0.36991
   C       -2.11903         2.62554         0.47795
   N       -3.22575         2.82417         0.70017
   O       -1.04558         0.04826         0.53591
   C        2.17152         1.44003        -0.43561
   N        3.09443         2.04123        -0.74640
   H        1.70806        -2.17806         2.15150
   H        1.39946        -3.30458         4.30212
   H       -0.86181        -3.60161         5.24149
   H       -2.82596        -2.76002         4.00237
   H       -2.52050        -1.64339         1.82503
   H       -2.39352        -0.80915        -1.22280
   H       -3.23830        -2.37892        -2.91365
   H       -2.15149        -4.57366        -3.22235
   H       -0.21797        -5.19330        -1.81850
   H        0.62051        -3.63120        -0.11664
   H        1.91302        -1.36808        -0.06267
*
