# ORCA input file
# SCF done        -27.307462401265          0.000238649775
! B3LYP/G D3BJ Opt RIJCOSX def2-SVP def2/J
* xyz 0 1
   C       -0.87180        -1.44378         0.00131
   C       -2.04158        -0.73244         0.00104
   C       -2.06058         0.67706         0.00103
   C       -0.91057         1.41990         0.00131
   C        0.30087         0.71941         0.00157
   C        0.32010        -0.71071         0.00157
   N        1.60908        -1.09203         0.00181
   N        2.27303         0.03134         0.00195
   N        1.57860         1.13614         0.00182
   C        3.70429         0.04675         0.00223
   H       -0.85135        -2.52187         0.00130
   H       -2.98512        -1.25845         0.00078
   H       -3.01804         1.17734         0.00079
   H       -0.91925         2.49814         0.00131
   H        4.05051        -0.98402         0.00192
   H        4.06885         0.56695         0.88854
   H        4.06916         0.56761        -0.88356
*
