# ORCA input file
# SCF done        -53.333502988595          0.000539465866
! B3LYP/G D3BJ Opt RIJCOSX def2-SVP def2/J
* xyz 0 1
   C       -1.61903         1.19370        -0.29503
   O       -1.99172         2.31986        -0.48808
   C       -0.23356         0.69439        -0.13486
   C       -0.24455        -0.69802         0.07733
   C        0.94329        -1.39191         0.25486
   C        2.13060        -0.67759         0.21582
   C        2.15934         0.70202         0.00576
   C        0.96094         1.39626        -0.17134
   F        0.98822         2.70711        -0.37065
   F        3.32290         1.35035        -0.02530
   F        3.28299        -1.32490         0.38359
   C       -1.62332        -1.17887         0.06697
   C       -2.03024        -2.46734         0.24173
   C       -1.15995        -3.55988         0.46385
   N       -0.50414        -4.48223         0.64570
   C       -3.38087        -2.88908         0.22500
   N       -4.45100        -3.29964         0.22387
   C       -2.48727        -0.02132        -0.16584
   C       -3.81576         0.06465        -0.27027
   H        0.98344        -2.45588         0.42069
   H       -4.48316        -0.77458        -0.19026
   H       -4.25385         1.03479        -0.44694
*
