# ORCA input file
# SCF done        -16.422850596182          0.000800803299
! B3LYP/G D3BJ Opt RIJCOSX def2-SVP def2/J
* xyz 0 1
   C       -0.75015         1.15077         0.01351
   C        0.63707         1.17631         0.03355
   N        1.36006         0.06771         0.06235
   C        0.69450        -1.07259         0.07117
   N       -0.61776        -1.21761         0.05419
   C       -1.33700        -0.10657         0.02541
   H       -1.33718         2.05423        -0.00992
   H        1.19497         2.10444         0.02661
   H        1.28426        -1.98026         0.09471
   H       -2.41166        -0.23938         0.01173
*
