# ORCA input file
# SCF done        -60.282323899382          0.000380036527
! B3LYP/G D3BJ Opt RIJCOSX def2-SVP def2/J
* xyz 0 1
   C       -0.31338        -1.44812         0.45953
   C       -0.38065        -2.11829         1.82171
   C        0.41705        -3.23898         2.03220
   C        0.42405        -3.86733         3.26304
   C       -0.35903        -3.38125         4.29709
   C       -1.14621        -2.26244         4.09308
   C       -1.15431        -1.62816         2.86203
   C       -0.42561        -2.45448        -0.66490
   C       -1.37029        -3.47047        -0.57768
   C       -1.51431        -4.37506        -1.61281
   C       -0.72247        -4.27010        -2.74454
   C        0.20996        -3.25211        -2.84005
   C        0.35650        -2.34285        -1.80697
   C        0.93223        -0.63524         0.42577
   C        0.79299         0.69118         0.25028
   C       -0.57750         1.13551         0.07399
   C       -1.00162         2.41301        -0.15831
   C       -0.14085         3.52257        -0.27440
   N        0.50621         4.46315        -0.38229
   C       -2.37531         2.70094        -0.30524
   N       -3.49373         2.92571        -0.42136
   S       -1.67671        -0.20682         0.18921
   C        1.90389         1.56674         0.23547
   N        2.85237         2.20763         0.23305
   H        1.02569        -3.62342         1.22638
   H        1.04374        -4.73817         3.41370
   H       -0.35399        -3.87314         5.25772
   H       -1.75922        -1.87558         4.89270
   H       -1.77641        -0.75783         2.71640
   H       -1.99185        -3.54731         0.30255
   H       -2.24956        -5.16152        -1.53593
   H       -0.83635        -4.97687        -3.55230
   H        0.82539        -3.15925        -3.72201
   H        1.08170        -1.54568        -1.89239
   H        1.88097        -1.12282         0.57947
*
