# ORCA input file
# SCF done        -24.703232192948          0.000178170544
! B3LYP/G D3BJ Opt RIJCOSX def2-SVP def2/J
* xyz 0 1
   C       -0.90881        -1.45205        -0.00056
   C       -2.06672        -0.73476        -0.00077
   C       -2.08261         0.68567        -0.00017
   C       -0.94104         1.42868         0.00065
   C        0.27887         0.72423         0.00088
   C        0.29503        -0.72049         0.00028
   N        1.56115        -1.09600         0.00066
   O        2.27829         0.02415         0.00152
   N        1.53627         1.12797         0.00160
   H       -0.88757        -2.52917        -0.00102
   H       -3.01497        -1.25133        -0.00143
   H       -3.04218         1.18090        -0.00040
   H       -0.94389         2.50601         0.00110
*
