# ORCA input file
# SCF done        -47.020724591046          0.000606588263
! B3LYP/G D3BJ Opt RIJCOSX def2-SVP def2/J
* xyz 0 1
   C       -0.85451        -1.44636        -0.00097
   C       -0.00382        -0.34657        -0.01054
   C       -0.49785         0.96719         0.50367
   C        1.30987        -0.46475        -0.49650
   C        2.22246         0.71834        -0.50286
   C        1.75956        -1.69176        -0.97073
   C        0.91079        -2.78125        -0.95693
   C       -0.40616        -2.67175        -0.47175
   C       -1.07144        -3.96180        -0.56664
   C       -2.35447        -4.24375        -0.19693
   C       -3.25254        -3.29704         0.34374
   N       -4.02853        -2.57600         0.78502
   C       -2.95658        -5.51709        -0.30211
   N       -3.50419        -6.52370        -0.35796
   C       -0.10642        -4.90647        -1.13406
   C        1.16876        -4.15977        -1.39554
   O        2.18069        -4.62091        -1.86763
   C       -0.22400        -6.20694        -1.40616
   H       -1.85804        -1.33125         0.37653
   H       -1.52639         0.88685         0.84397
   H       -0.44717         1.72654        -0.27586
   H        0.11865         1.30816         1.33467
   H        1.79773         1.52719        -1.09627
   H        3.19177         0.45499        -0.91662
   H        2.36642         1.09514         0.50928
   H        2.76461        -1.80513        -1.34865
   H       -1.11590        -6.78175        -1.23161
   H        0.62555        -6.72211        -1.82655
*
