# ORCA input file
# SCF done        -23.701517474765          0.000662790916
! B3LYP/G D3BJ Opt RIJCOSX def2-SVP def2/J
* xyz 0 1
   C       -0.91748         1.36940         0.00252
   C        0.26154         0.62905         0.00176
   C        0.19736        -0.78347         0.00069
   C       -1.01644        -1.44967         0.00039
   C       -2.17197        -0.69367         0.00116
   C       -2.12194         0.69964         0.00221
   S        1.80959        -1.43687        -0.00008
   C        2.40490         0.21112         0.00108
   N        1.53052         1.13488         0.00193
   H       -0.86377         2.44621         0.00333
   H       -1.05202        -2.52796        -0.00043
   H       -3.13037        -1.19061         0.00094
   H       -3.04479         1.25996         0.00279
   H        3.46236         0.39066         0.00104
*
