# ORCA input file
# SCF done        -65.824027020408          0.000944647642
! B3LYP/G D3BJ Opt RIJCOSX def2-SVP def2/J
* xyz 0 1
   C       -1.27853         0.29503         0.66524
   C       -0.41228        -0.47513         1.42473
   C        0.93968        -0.48699         1.14065
   C        1.44741         0.27208         0.08811
   C        0.57154         1.06008        -0.65569
   C       -0.78157         1.06472        -0.37324
   C        2.88862         0.28050        -0.21598
   C        3.47446         1.61361        -0.43309
   C        4.32489         1.86138        -1.50891
   C        4.84996         3.12348        -1.71073
   C        4.53503         4.15778        -0.84444
   C        3.68044         3.92499         0.22040
   C        3.14780         2.66557         0.42098
   C        3.61715        -0.85504        -0.28819
   C        2.99898        -2.19142        -0.25348
   C        1.88367        -2.48971        -1.03345
   C        1.32454        -3.75277        -1.00227
   C        1.86920        -4.73785        -0.19526
   C        2.98645        -4.45581         0.57282
   C        3.55213        -3.19522         0.53918
   C        5.08516        -0.85019        -0.40276
   C        5.86848        -0.03574         0.41284
   C        7.24624        -0.06182         0.31271
   C        7.86413        -0.89977        -0.60113
   C        7.09523        -1.72185        -1.40808
   C        5.71704        -1.70359        -1.30523
   H       -2.33593         0.29928         0.88576
   H       -0.79252        -1.06682         2.24460
   H        1.61376        -1.07815         1.74239
   H        0.95825         1.65936        -1.46792
   H       -1.45149         1.67231        -0.96472
   H        4.56329         1.06039        -2.19344
   H        5.50620         3.30264        -2.55015
   H        4.94958         5.14267        -1.00195
   H        3.42660         4.72901         0.89626
   H        2.48186         2.48447         1.25322
   H        1.46283        -1.72741        -1.67274
   H        0.46080        -3.97096        -1.61295
   H        1.42807        -5.72342        -0.16949
   H        3.41923        -5.22160         1.19961
   H        4.42241        -2.97505         1.14135
   H        5.39053         0.61028         1.13474
   H        7.84218         0.57199         0.95323
   H        8.94125        -0.91644        -0.67997
   H        7.57178        -2.38154        -2.11884
   H        5.11774        -2.34522        -1.93620
*
