# ORCA input file
# SCF done        -21.630138137980          0.000936837429
! B3LYP/G D3BJ Opt RIJCOSX def2-SVP def2/J
* xyz 0 1
   C        1.01144         1.33977         0.00204
   C        2.14512         0.60003        -0.00133
   S        1.87147        -1.11711        -0.00559
   C        0.17910        -0.83673        -0.00276
   C       -0.14523         0.52117         0.00128
   N       -1.47638         0.77240         0.00359
   C       -2.15460        -0.30912         0.00153
   S       -1.23878        -1.81146        -0.00362
   H        0.98263         2.41302         0.00494
   H        3.15940         0.94683        -0.00165
   H       -3.22555        -0.34266         0.00275
*
