# ORCA input file
# SCF done        -40.995786669707          0.000866555087
! B3LYP/G D3BJ Opt RIJCOSX def2-SVP def2/J
* xyz 0 1
   C       -2.44056        -0.60287        -0.00003
   C       -1.32905        -1.59539        -0.00121
   O       -1.42937        -2.79413        -0.00145
   C       -0.08205        -0.78218        -0.00067
   C       -0.39617         0.58638        -0.00043
   C       -1.87293         0.77470        -0.00079
   O       -2.48529         1.81017        -0.00064
   C        0.62241         1.52573         0.00010
   C        1.95193         1.11429         0.00037
   C        2.26114        -0.23277         0.00014
   C        1.24431        -1.18296        -0.00037
   F        1.57280        -2.47504        -0.00057
   F        0.35419         2.83165         0.00036
   C       -3.73861        -0.90105         0.00102
   H        2.73085         1.86071         0.00082
   H        3.28768        -0.56459         0.00039
   H       -4.06956        -1.92727        -0.00139
   H       -4.48472        -0.12271        -0.00099
*
