# ORCA input file
# SCF done        -31.905021319464          0.000470648338
! B3LYP/G D3BJ Opt RIJCOSX def2-SVP def2/J
* xyz 0 1
   C        0.76899         0.57551        -0.06390
   C        2.07752         0.29398        -0.06064
   C        3.17362         1.22336        -0.05240
   C        4.39380         0.64960        -0.04733
   C        4.37510        -0.77772        -0.05087
   S        2.71717        -1.35798        -0.06460
   C        5.44911        -1.62363        -0.04049
   C        6.83217        -1.27092        -0.02368
   C        7.67580        -2.32265        -0.00880
   C        7.02922        -3.60607        -0.01391
   S        5.27354        -3.37143        -0.04001
   C        7.60945        -4.81218         0.00073
   H        0.42726         1.59568        -0.06064
   H        0.02341        -0.19825        -0.06997
   H        2.99051         2.28353        -0.04989
   H        5.32070         1.19573        -0.04048
   H        7.14582        -0.24181        -0.02286
   H        8.74926        -2.25210         0.00598
   H        8.68113        -4.90523         0.01940
   H        7.03192        -5.71832        -0.00163
*
