# ORCA input file
# SCF done        -27.340240004682          0.000536862732
! B3LYP/G D3BJ Opt RIJCOSX def2-SVP def2/J
* xyz 0 1
   C       -0.87925        -1.44053        -0.00202
   C       -2.05631        -0.75047        -0.00204
   C       -2.01161         0.66076        -0.00182
   N       -0.90316         1.34860        -0.00150
   C        0.24155         0.68891        -0.00145
   N        1.46354         1.16381        -0.00117
   C        2.28119         0.09485        -0.00127
   C        1.58450        -1.09540        -0.00165
   N        0.27243        -0.73995        -0.00174
   C        2.04792        -2.50637        -0.00194
   H       -0.81753        -2.52016        -0.00224
   H       -2.99851        -1.27140        -0.00225
   H       -2.92576         1.23752        -0.00168
   H        3.34578         0.22622        -0.00109
   H        3.13367        -2.53118        -0.00200
   H        1.68653        -3.03393        -0.88595
   H        1.68662        -3.03427         0.88189
*
