# ORCA input file
# SCF done        -37.151965173747          0.000762583719
! B3LYP/G D3BJ Opt RIJCOSX def2-SVP def2/J
* xyz 0 1
   C        0.69826         1.29943         0.52604
   O        1.25816         2.37129         0.49031
   N       -0.67549         1.19989         0.59900
   C       -1.46093         2.42418         0.63576
   C       -1.40489         0.02464         0.64800
   O       -2.60895         0.04398         0.71855
   N       -0.68941        -1.15959         0.61290
   C       -1.43746        -2.40643         0.66178
   C        0.68303        -1.26841         0.54147
   O        1.22110        -2.35135         0.51883
   C        1.42575         0.01053         0.49761
   C        2.76070         0.00216         0.43416
   H       -0.76844         3.26219         0.63771
   H       -2.07820         2.43650         1.53303
   H       -2.11084         2.47174        -0.23722
   H       -2.49488        -2.16711         0.73375
   H       -1.11760        -2.98704         1.52646
   H       -1.23835        -2.98493        -0.23977
   H        3.30000        -0.93017         0.41362
   H        3.31193         0.92709         0.40301
*
