# ORCA input file
# SCF done        -35.429507951215          0.000424842028
! B3LYP/G D3BJ Opt RIJCOSX def2-SVP def2/J
* xyz 0 1
   C       -1.43613         0.16624        -0.18193
   C       -0.54534         1.08277        -0.54784
   C        0.87247         0.88287        -0.32362
   C        1.34757        -0.28746         0.09301
   C        0.45285        -1.47861         0.32443
   C       -1.02866        -1.08953         0.54582
   N       -1.97303        -2.12267         0.18698
   C       -1.63002        -2.99142        -0.65337
   C       -0.27608        -3.04974        -1.23674
   N        0.68179        -2.36670        -0.79846
   F       -0.08374        -3.85789        -2.27613
   F       -2.50515        -3.92216        -1.02302
   H       -2.49524         0.27850        -0.35195
   H       -0.85816         1.99231        -1.03699
   H        1.53717         1.70874        -0.52542
   H        2.40397        -0.47467         0.19544
   H        0.81921        -2.02908         1.20224
   H       -1.19468        -0.90621         1.61755
*
