# ORCA input file
# SCF done        -33.618628066725          0.000490969658
! B3LYP/G D3BJ Opt RIJCOSX def2-SVP def2/J
* xyz 0 1
   C       -1.28150         1.35876         0.02248
   C       -0.02113         0.75767         0.00326
   C        0.06272        -0.63689        -0.02873
   C       -1.09657        -1.41282        -0.03867
   C       -2.32862        -0.79644        -0.01871
   C       -2.42441         0.59225         0.01139
   O        1.25297        -1.29302        -0.05211
   C        2.39278        -0.57714        -0.04362
   C        3.61540        -1.44026        -0.07727
   C        2.42121         0.76910        -0.01054
   C        1.20999         1.57224         0.01678
   O        1.20230         2.79138         0.04403
   H       -1.31957         2.43741         0.04584
   H       -1.00290        -2.48727        -0.06215
   H       -3.22526        -1.39775        -0.02662
   H       -3.39524         1.06339         0.02558
   H        3.32326        -2.48680        -0.07061
   H        4.24616        -1.23741         0.78538
   H        4.19539        -1.23695        -0.97519
   H        3.36647         1.28730        -0.00490
*
