# ORCA input file
# SCF done        -47.091544279919          0.000734991001
! B3LYP/G D3BJ Opt RIJCOSX def2-SVP def2/J
* xyz 0 1
   C       -0.37800        -1.34673         0.19087
   C       -1.14931        -0.08831         0.13409
   O       -2.34323         0.00445         0.28430
   N       -0.31840         0.99006        -0.10800
   C        1.00927         0.71476        -0.25153
   C        2.08156         1.52505        -0.50710
   C        2.19793         2.94222        -0.83125
   O        1.31475         3.76017        -0.97930
   N        3.53524         3.27711        -0.99027
   C        4.46589         2.29959        -0.86502
   S        6.07321         2.50950        -1.03485
   S        3.68108         0.77387        -0.49978
   C        3.92083         4.63157        -1.30442
   S        1.32449        -1.00582        -0.04676
   C       -0.90782         2.31041        -0.11693
   C       -0.92526        -2.54177         0.39975
   H        3.01339         5.23298        -1.32154
   H        4.41409         4.66416        -2.27642
   H        4.61224         5.00372        -0.54796
   H       -1.96561         2.18008         0.11130
   H       -0.79403         2.78236        -1.08990
   H       -0.43941         2.94075         0.63654
   H       -1.99146        -2.61386         0.53365
   H       -0.34118        -3.44283         0.44513
*
