# ORCA input file
# SCF done        -33.630840152274          0.000798499351
! B3LYP/G D3BJ Opt RIJCOSX def2-SVP def2/J
* xyz 0 1
   C       -2.40546        -0.76208        -0.00416
   C       -2.45664         0.63079        -0.03549
   C       -1.29900         1.37534        -0.04249
   C       -0.05227         0.74110        -0.01859
   C       -0.00649        -0.66330         0.01590
   C       -1.18898        -1.40578         0.02244
   C        1.28004        -1.35636         0.04360
   O        1.42947        -2.55184         0.08107
   O        2.40339        -0.57081         0.02335
   C        2.35270         0.77910        -0.01400
   C        3.70735         1.41354        -0.02995
   C        1.18907         1.45633        -0.03193
   H       -3.32174        -1.33241        -0.00142
   H       -3.41491         1.12886        -0.05574
   H       -1.33906         2.45439        -0.06733
   H       -1.11630        -2.48220         0.04779
   H        4.46651         0.63960        -0.09741
   H        3.86753         1.98882         0.88020
   H        3.80194         2.08728        -0.87883
   H        1.18577         2.53303        -0.05992
*
