# ORCA input file
# SCF done        -32.550688542154          0.000789604676
! B3LYP/G D3BJ Opt RIJCOSX def2-SVP def2/J
* xyz 0 1
   C        1.90161         1.11199         0.00381
   C        2.21389        -0.24215         0.00446
   C        1.21513        -1.20574         0.00457
   C       -0.10297        -0.78330         0.00394
   C       -0.41814         0.58357         0.00326
   C        0.58165         1.54076         0.00323
   C       -1.88708         0.77000         0.00254
   O       -2.49936         1.81067         0.00203
   C       -2.46198        -0.60698         0.00348
   C       -1.34224        -1.59370         0.00386
   O       -1.43816        -2.79723         0.00450
   C       -3.75902        -0.90686         0.00359
   H        2.69898         1.84055         0.00371
   H        3.24981        -0.54780         0.00501
   H        1.44744        -2.25981         0.00516
   H        0.32870         2.59007         0.00260
   H       -4.50747        -0.13076         0.00194
   H       -4.08899        -1.93348         0.00272
*
