# ORCA input file
# SCF done        -56.613922582942          0.000425901142
! B3LYP/G D3BJ Opt RIJCOSX def2-SVP def2/J
* xyz 0 1
   C        1.25243         0.32186         0.14484
   C        0.60458         1.34150        -0.65821
   C        0.67415         1.36838        -2.05495
   C        0.03775         2.35708        -2.77163
   C       -0.67524         3.36414        -2.12092
   C       -0.76536         3.33654        -0.73013
   C       -0.14309         2.33379        -0.01603
   C       -1.33565         4.40025        -2.96386
   O       -1.60642         4.22379        -4.11995
   O       -1.61246         5.57553        -2.36738
   C        2.23874        -0.48791        -0.26639
   C        2.89627        -1.49775         0.54161
   C        4.14554        -1.98315         0.13977
   C        4.81046        -2.93104         0.88532
   C        4.23512        -3.45211         2.04387
   C        2.98645        -2.98088         2.44814
   C        2.33247        -2.01550         1.71125
   C        5.00968        -4.47591         2.79997
   O        6.19916        -4.59938         2.69621
   O        4.30718        -5.28451         3.61612
   H        0.90997         0.26775         1.16998
   H        1.21289         0.59642        -2.58168
   H        0.07821         2.37625        -3.85009
   H       -1.35159         4.07052        -0.19164
   H       -0.22766         2.31758         1.06117
   H       -1.29944         5.61005        -1.45399
   H        2.63491        -0.38111        -1.26735
   H        4.59860        -1.59506        -0.76079
   H        5.78186        -3.29515         0.58759
   H        2.52231        -3.33768         3.35914
   H        1.36315        -1.67195         2.03807
   H        3.35619        -5.12124         3.57062
*
