# ORCA input file
# SCF done        -39.670743086571          0.000780173557
! B3LYP/G D3BJ Opt RIJCOSX def2-SVP def2/J
* xyz 0 1
   C        3.42610        -0.08941        -0.01001
   C        2.53630        -1.10278        -0.01359
   C        1.18743        -0.64280        -0.00926
   C       -0.00850        -1.34949        -0.01090
   C       -1.18684        -0.61309        -0.00548
   C       -1.10461         0.80316         0.00134
   N        0.01459         1.49012         0.00300
   C        1.12425         0.77893        -0.00219
   S        2.70486         1.48955        -0.00113
   S       -2.67624         1.55976         0.00743
   C       -3.42760        -0.01715         0.00084
   C       -2.54717        -1.04555        -0.00554
   F       -2.89187        -2.34013        -0.01136
   F       -4.75228        -0.10660         0.00241
   H        4.49651        -0.15870        -0.01201
   H        2.80405        -2.14368        -0.01911
   H       -0.02880        -2.42881        -0.01616
*
