# ORCA input file
# SCF done        -30.993098081769          0.000247587958
! B3LYP/G D3BJ Opt RIJCOSX def2-SVP def2/J
* xyz 0 1
   C       -0.30862        -1.31636        -0.00446
   C       -0.79239        -2.62783        -0.00484
   N       -1.18587        -3.70479        -0.00484
   C       -1.04632        -0.15225        -0.00002
   F       -2.37598        -0.12351         0.00476
   C       -0.24571         1.00595        -0.00115
   F       -0.74621         2.24203         0.00252
   C        1.10463         0.73409        -0.00645
   S        1.39372        -0.97569        -0.01012
   C        2.15259         1.65789        -0.00898
   C        3.05590         2.45113        -0.01113
   H        3.83559         3.15298        -0.01289
*
