# ORCA input file
# SCF done        -78.244145238784          0.000151285781
! B3LYP/G D3BJ Opt RIJCOSX def2-SVP def2/J
* xyz 0 1
   C        1.03849        -0.05746         0.06534
   C        0.37783        -1.32281         0.33826
   C        0.90814        -2.34501         1.13390
   C        0.21699        -3.52840         1.36766
   C       -1.03842        -3.72972         0.80077
   C       -1.59713        -2.72866         0.00997
   C       -0.89545        -1.54981        -0.20275
   F       -1.45085        -0.60679        -0.96795
   F       -2.79927        -2.90434        -0.53743
   F       -1.69878        -4.86418         1.01579
   F        0.75698        -4.47290         2.13763
   F        2.09719        -2.19395         1.72322
   C        2.36122         0.15308         0.12009
   C        3.02390         1.41389        -0.16840
   C        2.42018         2.67314        -0.07386
   C        3.11611         3.84462        -0.34971
   C        4.45159         3.79050        -0.73903
   C        5.08335         2.55309        -0.83581
   C        4.37400         1.39554        -0.54573
   F        5.00083         0.22099        -0.64957
   F        6.36205         2.48424        -1.20434
   F        5.11800         4.90901        -1.01142
   F        2.50381         5.02347        -0.24024
   F        1.14872         2.78428         0.31989
   H        0.36777         0.72963        -0.24652
   H        3.03896        -0.65695         0.34628
*
