# ORCA input file
# SCF done        -21.633674325813          0.000735783837
! B3LYP/G D3BJ Opt RIJCOSX def2-SVP def2/J
* xyz 0 1
   C        1.13065         1.36344         0.00175
   C        2.16830         0.48676        -0.00121
   S        1.69168        -1.17928        -0.00456
   C        0.03706        -0.70732        -0.00121
   C       -0.10094         0.68067         0.00205
   S       -1.78068         1.07711         0.00544
   C       -2.11854        -0.64190         0.00170
   N       -1.10292        -1.42441        -0.00125
   H        1.23622         2.43228         0.00404
   H        3.21524         0.71721        -0.00164
   H       -3.13179        -0.98957         0.00189
*
