# ORCA input file
# SCF done        -32.412057206862          0.000438938299
! B3LYP/G D3BJ Opt RIJCOSX def2-SVP def2/J
* xyz 0 1
   C       -0.91960        -1.43916         0.00173
   C       -2.08441        -0.72680         0.00128
   F       -3.25972        -1.37170         0.00183
   C       -2.10111         0.69160         0.00025
   F       -3.29129         1.30864        -0.00013
   C       -0.95341         1.43120        -0.00037
   C        0.26392         0.73110         0.00007
   C        0.28090        -0.71058         0.00112
   N        1.52350        -1.19370         0.00138
   S        2.55259         0.03712         0.00044
   N        1.49479         1.24335        -0.00039
   H       -0.91887        -2.51597         0.00251
   H       -0.97805         2.50772        -0.00115
*
