# ORCA input file
# SCF done        -30.344700007857          0.000582149380
! B3LYP/G D3BJ Opt RIJCOSX def2-SVP def2/J
* xyz 0 1
   C       -0.77282         1.17730         0.11625
   C        0.59927         1.27405        -0.05506
   O        1.29973         2.44269        -0.16452
   C        0.59125         3.65397        -0.09518
   C        1.35380         0.10045        -0.12521
   C        0.74791        -1.12858        -0.02184
   C       -0.63421        -1.22790         0.15462
   C       -1.38527        -0.06473         0.22000
   O       -1.13496        -2.49626         0.25061
   C       -2.51800        -2.65490         0.44044
   H       -1.39186         2.05899         0.17268
   H        1.33836         4.43960        -0.19774
   H        0.07843         3.76759         0.86612
   H       -0.13823         3.74230        -0.90749
   H        2.42017         0.18344        -0.26112
   H        1.32518        -2.03780        -0.07399
   H       -2.45541        -0.09770         0.35242
   H       -2.68556        -3.72883         0.50661
   H       -3.08929        -2.25198        -0.40238
   H       -2.85542        -2.17978         1.36747
*
