# ORCA input file
# SCF done        -13.818274574949          0.000870936452
! B3LYP/G D3BJ Opt RIJCOSX def2-SVP def2/J
* xyz 0 1
   C       -1.26338         0.09942        -0.00236
   C       -0.38399         1.13136        -0.00007
   C        0.96224         0.69541        -0.00017
   C        1.06977        -0.65613        -0.00253
   S       -0.46845        -1.42598        -0.00469
   H       -2.33461         0.13233        -0.00285
   H       -0.67637         2.16622         0.00163
   H        1.80574         1.36243         0.00144
   H        1.95693        -1.25742        -0.00315
*
