# ORCA input file
# SCF done        -21.070287036127          0.000271138113
! B3LYP/G D3BJ Opt RIJCOSX def2-SVP def2/J
* xyz 0 1
   C       -1.11473         0.03311         0.00142
   N       -0.28806         1.04551        -0.00278
   O        0.95801         0.55761        -0.00615
   C        0.91218        -0.78874        -0.00405
   C        2.16093        -1.54438        -0.00698
   O        2.22933        -2.74431        -0.00581
   C       -0.40800        -1.18496         0.00080
   H       -2.17277         0.19897         0.00467
   H        3.05553        -0.89632        -0.01158
   H       -0.78822        -2.18407         0.00349
*
