# ORCA input file
# SCF done        -47.826161504838          0.000563139218
! B3LYP/G D3BJ Opt RIJCOSX def2-SVP def2/J
* xyz 0 1
   C        1.61321         0.07630        -0.35871
   O        0.69760        -0.70604        -0.39815
   C        3.05208        -0.19855        -0.54300
   C        3.78674         0.99643        -0.41775
   C        5.16701         0.96843        -0.55746
   C        5.78775        -0.24627        -0.81839
   C        5.04879        -1.42798        -0.94070
   C        3.66772        -1.40687        -0.80208
  Br        5.92021        -3.06475        -1.29604
  Br        7.66730        -0.28234        -1.00915
   C        2.87712         2.10348        -0.14775
   C        3.22396         3.40881         0.03572
   C        4.55194         3.89273        -0.00700
   N        5.60883         4.33691        -0.02984
   C        2.30557         4.45265         0.29409
   N        1.61515         5.34327         0.50505
   C        1.52110         1.55057        -0.10926
   C        0.34673         2.15043         0.09894
   H        5.76960         1.85808        -0.47017
   H        3.08577        -2.31093        -0.89433
   H       -0.54749         1.54705         0.08553
   H        0.23188         3.20396         0.28057
*
