# ORCA input file
# SCF done        -16.658516551077          0.000709519717
! B3LYP/G D3BJ Opt RIJCOSX def2-SVP def2/J
* xyz 0 1
   C       -0.68961         1.07829         0.07792
   N        0.62840         1.24501         0.02600
   C        1.33893         0.13310         0.02128
   C        0.69677        -1.10624         0.06900
   N       -0.62119        -1.17696         0.11906
   N       -1.31947        -0.07815         0.12358
   H       -1.30213         1.96957         0.08330
   H        2.41522         0.23613        -0.02048
   H        1.22895        -2.04564         0.06753
*
