# ORCA input file
# SCF done        -29.570472977480          0.000617386391
! B3LYP/G D3BJ Opt RIJCOSX def2-SVP def2/J
* xyz 0 1
   C       -0.33260         1.15513         0.00004
   F       -0.66620         2.43572        -0.00456
   C        0.96013         0.64955         0.00355
   C        2.19027         1.32888         0.00329
   N        3.18275         1.90068         0.00283
   O        0.90434        -0.69334         0.00786
   C       -0.39262        -1.05479         0.00713
   C       -0.72625        -2.47500         0.01149
   O       -1.84657        -2.91000         0.01066
   C       -1.20751         0.06098         0.00225
   H        0.16712        -3.12445         0.01374
   H       -2.27766         0.07674         0.00068
*
