# ORCA input file
# SCF done        -48.218193661007          0.000857638672
! B3LYP/G D3BJ Opt RIJCOSX def2-SVP def2/J
* xyz 0 1
   C       -2.59528        -1.19814         0.00243
   C       -3.03046        -2.49220         0.00222
   C       -2.18005        -3.62006         0.00096
   N       -1.54093        -4.57272         0.00019
   C       -4.38823        -2.88185         0.00286
   N       -5.46891        -3.26650         0.00275
   C       -1.21176        -0.75100         0.00170
   C       -1.17393         0.66887         0.00177
   C        0.00545         1.37605         0.00127
   C        1.20216         0.65480         0.00080
   C        1.15542        -0.76188         0.00078
   C       -0.03368        -1.47830         0.00119
   S        2.75141        -1.44298         0.00013
   C        3.45202         0.13790        -0.00007
   C        2.54126         1.13603         0.00032
   C       -2.54592         1.19828         0.00277
   O       -2.90031         2.35308         0.00267
   C       -3.44234        -0.00330         0.00243
   C       -4.77137         0.11648         0.00314
   H        0.00129         2.45498         0.00142
   H       -0.01774        -2.55546         0.00117
   H        4.52134         0.22361        -0.00050
   H        2.79293         2.18101         0.00023
   H       -5.19782         1.10727         0.00613
   H       -5.45167        -0.71637         0.00568
*
