# ORCA input file
# SCF done        -39.676437329706          0.000656111839
! B3LYP/G D3BJ Opt RIJCOSX def2-SVP def2/J
* xyz 0 1
   S       -2.68761         1.49753        -0.00473
   C       -3.40760        -0.09394        -0.00109
   F       -4.73208        -0.19256        -0.00241
   C       -2.54053        -1.12592         0.00288
   C       -1.19084        -0.66647         0.00316
   C       -1.11411         0.75224        -0.00078
   N        0.00075         1.44955        -0.00152
   C        1.11516         0.75154         0.00164
   C        1.19100        -0.66722         0.00575
   C        2.54039        -1.12751         0.00840
   C        3.40812        -0.09608         0.00631
   S        2.68913         1.49585         0.00112
   F        4.73254        -0.19553         0.00787
   C       -0.00015        -1.38296         0.00651
   H       -2.83173        -2.15957         0.00546
   H        2.83094        -2.16134         0.01161
   H       -0.00050        -2.46230         0.00958
*
