# ORCA input file
# SCF done        -16.697646872571          0.000190514936
! B3LYP/G D3BJ Opt RIJCOSX def2-SVP def2/J
* xyz 0 1
   C       -0.64041         1.11495         0.00131
   N        0.68051         1.17408        -0.00018
   C        1.28774        -0.00050        -0.00087
   N        0.67848        -1.17402        -0.00019
   C       -0.64234        -1.11260         0.00129
   N       -1.35401         0.00179         0.00210
   H       -1.18112         2.05336         0.00191
   H        2.37078        -0.00143        -0.00208
   H       -1.18467        -2.05008         0.00190
*
