# ORCA input file
# SCF done        -34.177405996271          0.000852170210
! B3LYP/G D3BJ Opt RIJCOSX def2-SVP def2/J
* xyz 0 1
   O       -0.22676        -0.97245         0.01046
   N       -1.02225         0.09513         0.00598
   C       -0.26711         1.16735        -0.00007
   C       -0.80599         2.47488        -0.00627
   N       -1.25629         3.52471        -0.01140
   C        1.11710         0.80209        -0.00072
   C        1.05711        -0.58206         0.00701
   C        2.10073        -1.52622         0.01110
   N        2.99524        -2.24186         0.01214
   C        2.25383         1.76178        -0.00801
   O        2.06362         2.94253        -0.01221
   O        3.48561         1.24401        -0.00623
   H        3.54497         0.27839        -0.00161
*
