# ORCA input file
# SCF done        -42.655872666701          0.000711655645
! B3LYP/G D3BJ Opt RIJCOSX def2-SVP def2/J
* xyz 0 1
   C       -0.06943         0.59742         0.00039
   C       -1.32413         1.12801         0.00193
   S       -2.52494        -0.10755         0.00102
   C       -1.31832        -1.37310        -0.00119
  Cl       -1.75659        -3.00829        -0.00300
   C       -0.06454        -0.83730        -0.00152
   C        1.31509        -1.33242        -0.00388
   O        1.71706        -2.46850        -0.00471
   C        2.16632        -0.08986        -0.00444
   C        1.29137         1.08743        -0.00025
   C        1.66245         2.40011         0.00440
   C        0.70495         3.43880         0.01113
   N       -0.06260         4.29051         0.01681
   C        2.99471         2.86498         0.00528
   N        4.05767         3.29624         0.00587
   C        3.49898        -0.15889        -0.01001
   H       -1.62544         2.15685         0.00325
   H        3.96657        -1.13079        -0.01435
   H        4.14211         0.70342        -0.01307
*
