# ORCA input file
# SCF done        -38.610492618844          0.000775595348
! B3LYP/G D3BJ Opt RIJCOSX def2-SVP def2/J
* xyz 0 1
   C       -1.38014         1.10920         0.00253
   C       -2.24995         0.05845         0.00474
   S       -1.48298        -1.48771         0.00604
   C        0.05423        -0.72693         0.00330
   C       -0.04881         0.66135         0.00163
   C        1.29660         1.24451        -0.00090
   O        1.62324         2.40567        -0.00199
   C        2.23003         0.05995        -0.00206
   C        1.41713        -1.16544         0.00235
   C        1.84376        -2.46342         0.00597
   C        0.91882        -3.53114         0.01000
   N        0.17330        -4.40252         0.01379
   C        3.19406        -2.86849         0.00623
   N        4.27652        -3.24846         0.00791
   C        3.55500         0.19830        -0.00773
   H       -1.67529         2.14203         0.00165
   H       -3.32198         0.09825         0.00588
   H        3.97200         1.19288        -0.01085
   H        4.24136        -0.63031        -0.00972
*
