# ORCA input file
# SCF done        -26.449323643250          0.000750014391
! B3LYP/G D3BJ Opt RIJCOSX def2-SVP def2/J
* xyz 0 1
   C        1.64908        -1.15461         0.22661
   C        0.35645        -0.73262         0.18072
   C        0.24571         0.65462        -0.13827
   O       -0.91160         1.36302        -0.26647
   C       -2.05962         0.75588         0.28469
   C       -2.28465        -0.65490        -0.23584
   S       -1.02831        -1.78103         0.46301
   C        1.46507         1.23030        -0.33322
   S        2.75287         0.11195        -0.12611
   H        2.00366        -2.14033         0.44650
   H       -2.88787         1.40608        -0.00913
   H       -1.99117         0.73776         1.38192
   H       -2.21114        -0.68238        -1.32335
   H       -3.25079        -1.03951         0.08240
   H        1.66291         2.24902        -0.59448
*
