# ORCA input file
# SCF done        -41.483026254856          0.000354661982
! B3LYP/G D3BJ Opt RIJCOSX def2-SVP def2/J
* xyz 0 1
   C       -2.25637        -0.02974        -0.00089
   C       -1.42960        -1.10755         0.01016
   C       -0.07905        -0.70761         0.00753
   C        0.09484         0.67675        -0.00569
   S       -1.42982         1.49016        -0.01449
   C        1.43459         1.08287        -0.00977
   C        2.27789        -0.00029         0.00065
   S        1.43602        -1.53226         0.01608
   C        3.70349         0.03826        -0.00265
   N        4.44462         1.10717        -0.02252
   C        5.73654         0.65155        -0.01944
   C        5.70403        -0.72241         0.00351
   O        4.42526        -1.11228         0.01413
   C        6.88109         1.55166        -0.04003
   O        8.03259         1.19983        -0.03869
   H       -3.32838        -0.02871        -0.00201
   H       -1.76286        -2.12834         0.01941
   H        1.78775         2.09609        -0.01974
   H        6.47501        -1.46477         0.01327
   H        6.58734         2.61565        -0.05583
*
