# ORCA input file
# SCF done        -26.418400624076          0.000614127909
! B3LYP/G D3BJ Opt RIJCOSX def2-SVP def2/J
* xyz 0 1
   C       -0.79974        -0.98252        -0.20149
   C       -1.34571        -2.01981         0.79120
   C       -1.31471         0.38901         0.10447
   S       -2.88489         0.79662         0.11728
   S       -0.03516         1.52236         0.46499
   C        1.25146         0.35103         0.20498
   C        0.71351        -0.98099        -0.17163
   O        1.40985        -1.93353        -0.40509
   C        2.55301         0.60769         0.32389
   H       -1.12902        -1.27228        -1.20706
   H       -1.05047        -1.76336         1.80662
   H       -0.94477        -2.99921         0.54420
   H       -2.43055        -2.04559         0.73658
   H        2.93003         1.57638         0.59896
   H        3.26349        -0.18153         0.14164
*
