# ORCA input file
# SCF done        -25.904960697428          0.000715205769
! B3LYP/G D3BJ Opt RIJCOSX def2-SVP def2/J
* xyz 0 1
   C       -0.71872        -1.16883        -0.17354
   S       -1.46782        -2.61585        -0.11650
   S       -1.51811         0.36853        -0.46567
   C        0.01764         1.23360        -0.35246
   C        1.08819         0.28599        -0.08486
   S        2.66201         0.71159         0.08925
   N        0.62299        -0.98948        -0.00110
   C        1.47450        -2.12484         0.24801
   C        0.15251         2.55268        -0.49493
   H        2.48343        -1.76239         0.43665
   H        1.47139        -2.78820        -0.61783
   H        1.10367        -2.67890         1.11053
   H       -0.69007         3.19010        -0.68949
   H        1.12539         3.00641        -0.41154
*
