# ORCA input file
# SCF done        -30.287007727655          0.000670146817
! B3LYP/G D3BJ Opt RIJCOSX def2-SVP def2/J
* xyz 0 1
   C       -1.41214         1.24189         0.15190
   C       -0.14651         0.71815         0.05520
   C       -0.15022        -0.72553         0.05758
   N        1.00920        -1.41971        -0.03074
   C        2.11133        -0.73032        -0.11669
   C        2.11567         0.71408        -0.11915
   N        1.01499         1.40699        -0.03531
   C        3.38196         1.50672        -0.21813
   C        3.37768        -1.51954        -0.21319
   C       -1.41807        -1.24283         0.15598
   S       -2.58401         0.00252         0.24392
   H       -1.70433         2.27167         0.17288
   H        4.26133         0.87619        -0.28295
   H        3.46749         2.15522         0.65200
   H        3.33457         2.14926        -1.09558
   H        3.13057        -2.57735        -0.19148
   H        4.03801        -1.29047         0.62194
   H        3.90074        -1.29466        -1.14155
   H       -1.71540        -2.27107         0.18036
*
