# ORCA input file
# SCF done        -18.615808626866          0.000437812262
! B3LYP/G D3BJ Opt RIJCOSX def2-SVP def2/J
* xyz 0 1
   C       -1.18793         0.10083        -0.00063
   N       -0.34188         1.06700         0.00067
   C        0.92547         0.62385        -0.00150
   C        1.06168        -0.74493        -0.00464
   S       -0.50577        -1.49153        -0.00460
   C        2.24621        -1.48539        -0.00779
   N        3.22403        -2.08492        -0.00892
   H       -2.25068         0.24011         0.00064
   H        1.73897         1.32606        -0.00084
*
