# ORCA input file
# SCF done        -31.479314950238          0.000510594675
! B3LYP/G D3BJ Opt RIJCOSX def2-SVP def2/J
* xyz 0 1
   C        1.02402        -1.40740        -0.02402
   C        2.18038        -0.65998        -0.10718
   C        2.14787         0.79901        -0.10397
   N        3.38879         1.31832        -0.19310
   S        4.43897         0.12055        -0.27049
   N        3.44318        -1.12312        -0.19855
   C        0.95938         1.49381        -0.01758
   C       -0.22096         0.74289         0.06734
   C       -1.51771         1.21966         0.16155
   S       -2.65709        -0.03869         0.24306
   C       -1.46280        -1.24465         0.15606
   C       -0.18859        -0.71018         0.06411
   H        1.05406        -2.48442        -0.02675
   H        0.94143         2.57111        -0.01548
   H       -1.83905         2.24104         0.18553
   H       -1.73832        -2.27942         0.17546
*
