# ORCA input file
# SCF done        -34.356281860280          0.000517325052
! B3LYP/G D3BJ Opt RIJCOSX def2-SVP def2/J
* xyz 0 1
   C       -2.37696        -0.74333        -0.01057
   C       -2.41996         0.65129        -0.02123
   C       -1.25311         1.37653        -0.02211
   C       -0.01195         0.72497        -0.01294
   C        0.02241        -0.68530        -0.00251
   C       -1.17236        -1.40915        -0.00105
   N        1.23392        -1.31571         0.00612
   C        2.47804        -0.71093         0.00247
   O        3.48569        -1.38274         0.00798
   C        2.41479         0.75653        -0.00763
   C        1.22847         1.42159        -0.01454
   C        3.63449         1.46862        -0.01147
   N        4.60472         2.07821        -0.01500
   H       -3.29810        -1.30572        -0.00978
   H       -3.37307         1.15652        -0.02870
   H       -1.27414         2.45585        -0.02998
   H       -1.13885        -2.48860         0.00744
   H        1.25015        -2.32947         0.01352
   H        1.21623         2.50308        -0.02171
*
