# ORCA input file
# SCF done        -23.963491231079          0.000515996337
! B3LYP/G D3BJ Opt RIJCOSX def2-SVP def2/J
* xyz 0 1
   C       -0.92862        -1.43542         0.00041
   C       -2.09919        -0.73000        -0.00015
   C       -2.11854         0.68110        -0.00061
   C       -0.96777         1.41837        -0.00051
   C        0.25582         0.72810         0.00007
   C        0.27557        -0.71184         0.00053
   N        1.51980        -1.19490         0.00104
   S        2.54725         0.03943         0.00094
   N        1.48632         1.24510         0.00027
   H       -0.90418        -2.51323         0.00076
   H       -3.04132        -1.25799        -0.00025
   H       -3.07481         1.18305        -0.00103
   H       -0.97291         2.49644        -0.00084
*
