# ORCA input file
# SCF done        -48.771961585825          0.000681677916
! B3LYP/G D3BJ Opt RIJCOSX def2-SVP def2/J
* xyz 0 1
   C        1.42066        -0.01080        -0.35357
   C        0.40156         0.38669         0.46034
   C        0.56714         0.79856         1.80266
   N        0.63584         1.14105         2.89490
   C       -0.95724         0.44344         0.07387
   N       -2.07467         0.51269        -0.17455
   C        2.83360        -0.07615        -0.00335
   C        3.57463        -0.53012        -1.11147
   C        4.94609        -0.68431        -1.05471
   C        5.59782        -0.37938         0.13291
   C        4.86835         0.07430         1.24153
   C        3.48912         0.22808         1.18155
  Cl        5.68654         0.44868         2.70215
  Cl        7.29950        -0.55801         0.24332
   C        2.66931        -0.78553        -2.24828
   O        2.95233        -1.17842        -3.35231
   C        1.29766        -0.44988        -1.74593
   C        0.21970        -0.57394        -2.52332
   H        5.49413        -1.03374        -1.91554
   H        2.96166         0.57912         2.05340
   H       -0.78281        -0.35076        -2.20432
   H        0.35386        -0.92559        -3.53430
*
