# ORCA input file
# SCF done        -33.549986561381          0.000559319802
! B3LYP/G D3BJ Opt RIJCOSX def2-SVP def2/J
* xyz 0 1
   C        1.04826        -0.70191        -0.06650
   C        0.97828         0.63643         0.09736
   C       -0.37343         1.13521         0.30954
   C       -0.72912         2.43815         0.50151
   C        0.17779         3.52133         0.52436
   N        0.85537         4.44450         0.55612
   C       -2.08132         2.80771         0.69944
   N       -3.17229         3.11609         0.86017
   S       -1.53255        -0.16719         0.29108
   C       -0.23020        -1.40234        -0.00174
   O       -0.46047        -2.56650        -0.11159
   C        2.11582         1.47402         0.06541
   N        3.07560         2.09684         0.02977
   H        1.95186        -1.26268        -0.23507
*
