# ORCA input file
# SCF done        -28.964449138112          0.000851107990
! B3LYP/G D3BJ Opt RIJCOSX def2-SVP def2/J
* xyz 0 1
   C       -0.53290         1.27253        -0.19241
   C        0.77225         1.10086         0.07426
   C        1.30764        -0.22707         0.22975
   C        2.63411        -0.46585         0.50423
   C        3.13926        -1.77002         0.65390
   N        3.54631        -2.83698         0.77409
   C        3.56225         0.58042         0.65279
   N        4.31572         1.43820         0.77235
   C        0.34246        -1.28472         0.07487
   C       -0.94054        -0.99016        -0.19188
   O       -1.41170         0.26276        -0.33114
   H       -0.99961         2.23744        -0.32071
   H        1.42743         1.95080         0.17421
   H        0.65979        -2.30985         0.17521
   H       -1.71467        -1.73157        -0.31990
*
