# ORCA input file
# SCF done        -59.712970170777          0.000308253823
! B3LYP/G D3BJ Opt RIJCOSX def2-SVP def2/J
* xyz 0 1
   C        1.80673         1.32748        -0.30383
   C        2.25980         0.03446        -0.50955
   C        1.40478        -1.05360        -0.41491
   C        0.06941        -0.83764        -0.10163
   C       -0.37879         0.49088         0.06567
   C        0.46974         1.57449        -0.02061
   N       -1.74156         0.49245         0.28887
   C       -2.54680         1.65831         0.52428
   C       -2.25110        -0.77737         0.22907
   O       -3.42490        -1.02746         0.41100
   C       -1.09003        -1.70473         0.00387
   C       -1.17555        -3.06676         0.00182
   C       -0.02037        -3.99325         0.25922
   O        1.14606        -3.74143         0.48160
   N       -0.52857        -5.26426         0.29531
   C        0.27139        -6.42957         0.55099
   C       -1.88409        -5.26388         0.03166
   C       -2.33009        -3.93516        -0.14018
   C       -3.65700        -3.71981        -0.48807
   C       -4.50669        -4.80898        -0.61311
   C       -4.05632        -6.10253        -0.40497
   C       -2.72711        -6.34872        -0.08663
   H        2.49573         2.15627        -0.37144
   H        3.29986        -0.13291        -0.74448
   H        1.78245        -2.04889        -0.56634
   H        0.10893         2.58134         0.12115
   H       -2.48683         2.34658        -0.32177
   H       -2.22079         2.17215         1.43090
   H       -3.57604         1.32342         0.64924
   H        1.29041        -6.09081         0.73556
   H        0.26151        -7.10178        -0.30989
   H       -0.09903        -6.96245         1.42894
   H       -4.03267        -2.72412        -0.64186
   H       -5.54051        -4.64215        -0.87447
   H       -4.74109        -6.93236        -0.49800
   H       -2.36778        -7.35576         0.05752
*
