# ORCA input file
# SCF done        -24.526058706208          0.000232492507
! B3LYP/G D3BJ Opt RIJCOSX def2-SVP def2/J
* xyz 0 1
   C       -2.07344        -0.72792         0.00008
   C       -2.09289         0.66767         0.00017
   C       -0.93125         1.41267         0.00017
   C        0.26857         0.71432         0.00008
   C        0.27512        -0.69612        -0.00001
   C       -0.88943        -1.44125        -0.00001
   O        1.57439        -1.09522        -0.00008
   C        2.27118         0.05901        -0.00004
   N        1.58033         1.13933         0.00006
   H       -3.00978        -1.26496         0.00008
   H       -3.04653         1.17393         0.00023
   H       -0.94078         2.49010         0.00024
   H       -0.86822        -2.51906        -0.00008
   H        3.34230         0.00063        -0.00008
*
