# ORCA input file
# SCF done        -24.101129057114          0.000243994631
! B3LYP/G D3BJ Opt RIJCOSX def2-SVP def2/J
* xyz 0 1
   C       -1.29445         0.08223        -0.00205
   C       -0.42728         1.14224         0.00050
   C       -0.76554         2.58313         0.00283
   O        0.06839         3.44609         0.00646
   O       -2.07613         2.89812         0.00166
   C        0.93023         0.71168         0.00084
   C        1.05178        -0.63475        -0.00166
   S       -0.47941        -1.42263        -0.00419
   H       -2.36858         0.07301        -0.00273
   H       -2.65038         2.12306        -0.00126
   H        1.74967         1.40596         0.00273
   H        1.94536        -1.22603        -0.00219
*
