# ORCA input file
# SCF done        -22.854030616476          0.000428690856
! B3LYP/G D3BJ Opt RIJCOSX def2-SVP def2/J
* xyz 0 1
   C       -1.16500         0.03271         0.00299
   C       -0.41888         1.18010         0.00071
   C       -0.89688         2.49511         0.00003
   N       -1.29626         3.57001         0.00097
   S        1.29089         0.84647        -0.00176
   C        0.98829        -0.83150        -0.00001
   C       -0.35315        -1.12732         0.00252
   C       -0.86417        -2.44082         0.00462
   N       -1.28526        -3.50609         0.00540
   H       -2.24021         0.01603         0.00480
   H        1.80481        -1.52723        -0.00086
*
