# ORCA input file
# SCF done        -35.209718595943          0.000244646903
! B3LYP/G D3BJ Opt RIJCOSX def2-SVP def2/J
* xyz 0 1
   C        1.33952         1.09248         0.00058
   C        0.02758         0.72538         0.00029
   C       -1.33431         1.21389         0.00063
   O       -1.81595         2.32435         0.00170
   N       -2.11314         0.02968        -0.00066
   C       -3.54953         0.05309        -0.00101
   C       -1.33307        -1.08543        -0.00170
   C       -0.02113        -0.71833        -0.00115
   C        1.34075        -1.20684        -0.00167
   O        1.82237        -2.31730        -0.00276
   N        2.11958        -0.02264        -0.00053
   C        3.55597        -0.04606        -0.00085
   H        1.78256         2.07188         0.00151
   H       -3.85337         1.09994        -0.00011
   H       -3.94773        -0.43932         0.88826
   H       -3.94725        -0.43767        -0.89141
   H       -1.77610        -2.06484        -0.00277
   H        3.85979        -1.09293        -0.00141
   H        3.95414         0.44512         0.88910
   H        3.95374         0.44591        -0.89056
*
