# ORCA input file
# SCF done        -26.732048399073          0.000436804251
! B3LYP/G D3BJ Opt RIJCOSX def2-SVP def2/J
* xyz 0 1
   N       -0.71909        -0.87469        -0.17912
   C       -1.52113        -2.01782        -0.54338
   C       -1.29509         0.27654         0.26505
   S       -2.89704         0.50116         0.43949
   S       -0.06674         1.48754         0.62663
   C        1.22361         0.38971         0.16160
   C        0.65654        -0.90934        -0.26896
   O        1.28753        -1.86609        -0.64508
   C        2.52755         0.65436         0.18183
   H       -2.21011        -1.74942        -1.34481
   H       -2.09933        -2.35818         0.31640
   H       -0.84055        -2.80042        -0.87504
   H        2.91791         1.60494         0.49734
   H        3.22311        -0.10763        -0.12825
*
