# ORCA input file
# SCF done        -16.988312434084          0.000101199375
! B3LYP/G D3BJ Opt RIJCOSX def2-SVP def2/J
* xyz 0 1
   C       -1.27619         0.10730        -0.00255
   C       -0.37477         1.11955         0.00044
   C        0.97062         0.66629         0.00143
   C        2.15950         1.57258         0.00455
   C        1.03833        -0.69237        -0.00089
   S       -0.51355        -1.43305        -0.00430
   H       -2.34633         0.16496        -0.00387
   H       -0.64829         2.15989         0.00193
   H        1.84208         2.61189         0.00716
   H        2.77620         1.39829        -0.87617
   H        2.77524         1.39353         0.88498
   H        1.91428        -1.31038        -0.00082
*
