# ORCA input file
# SCF done        -21.049943080040          0.000181302321
! B3LYP/G D3BJ Opt RIJCOSX def2-SVP def2/J
* xyz 0 1
   C       -1.28046         0.06672        -0.00285
   C       -0.42254         1.12544         0.00010
   O       -0.72709         2.44842         0.00254
   C       -2.09284         2.78322         0.00158
   C        0.94284         0.71845         0.00047
   C        1.08023        -0.62771        -0.00216
   S       -0.43574        -1.43609        -0.00522
   H       -2.35102         0.05693        -0.00383
   H       -2.13577         3.87082         0.00367
   H       -2.59816         2.39525         0.89227
   H       -2.59602         2.39877        -0.89185
   H        1.75496         1.42084         0.00263
   H        1.98379        -1.20340        -0.00255
*
