# ORCA input file
# SCF done        -30.748730344314          0.000319569601
! B3LYP/G D3BJ Opt RIJCOSX def2-SVP def2/J
* xyz 0 1
   C       -1.39011        -1.46457        -0.00177
   O       -1.61824        -2.64444        -0.00225
   C       -0.09298        -0.74298        -0.00159
   C       -0.35537         0.63064        -0.00093
   C        0.67016         1.55325        -0.00063
   C        1.97485         1.06972        -0.00100
   C        2.23501        -0.29227        -0.00166
   C        1.20041        -1.22264        -0.00197
   C       -1.82714         0.82332        -0.00068
   O       -2.47409         1.83602        -0.00014
   N       -2.35004        -0.46225        -0.00124
   H        0.45986         2.61136        -0.00012
   H        2.79897         1.76736        -0.00079
   H        3.25825        -0.63702        -0.00196
   H        1.39492        -2.28377        -0.00249
   H       -3.34196        -0.65172        -0.00118
*
