# ORCA input file
# SCF done        -20.226264910434          0.000186803214
! B3LYP/G D3BJ Opt RIJCOSX def2-SVP def2/J
* xyz 0 1
   C       -1.22335         0.11413        -0.00351
   C       -0.31759         1.11877        -0.00051
   C        1.02198         0.64086         0.00040
   S        2.36413         1.77516         0.00422
   C        3.79751         0.66330         0.00565
   C        1.09120        -0.71726        -0.00196
   S       -0.47604        -1.43498        -0.00528
   H       -2.29275         0.18198        -0.00478
   H       -0.56242         2.16489         0.00106
   H        4.67388         1.30362         0.00847
   H        3.78717         0.05070        -0.89105
   H        3.78329         0.04809         0.90051
   H        1.95031        -1.35564        -0.00199
*
