# ORCA input file
# SCF done        -35.758247209225          0.000242667865
! B3LYP/G D3BJ Opt RIJCOSX def2-SVP def2/J
* xyz 0 1
   C       -0.85401        -1.45163         0.00100
   C       -2.02157        -0.74008         0.00221
   F       -3.19625        -1.39316         0.00474
   C       -2.04760         0.67594         0.00087
   F       -3.24551         1.28526         0.00220
   C       -0.90711         1.43009        -0.00173
   C        0.30277         0.72713        -0.00306
   C        0.32901        -0.70457        -0.00171
   N        1.61861        -1.07744        -0.00360
   N        2.27716         0.04782        -0.00582
   N        1.57721         1.14795        -0.00570
   C        3.70766         0.07017        -0.00820
   H       -0.85018        -2.52822         0.00204
   H       -0.94282         2.50608        -0.00273
   H        4.05929        -0.95863        -0.01084
   H        4.07053         0.59137         0.87793
   H        4.06734         0.59506        -0.89343
*
