# ORCA input file
# SCF done        -45.416742159689          0.000540404372
! B3LYP/G D3BJ Opt RIJCOSX def2-SVP def2/J
* xyz 0 1
   C        3.48967        -0.31992         0.00467
   C        2.51511        -1.24666         0.00065
   C        1.20346        -0.68330         0.00004
   C        1.22377         0.73191         0.00421
   S        2.88508         1.30094         0.00800
   C        0.04668         1.46816         0.00445
   O       -0.11568         2.82033         0.00783
   C        1.00740         3.66672         0.02591
   C       -1.14998         0.73244        -0.00017
   C       -1.17028        -0.68277        -0.00459
   C        0.00680        -1.41903        -0.00438
   O        0.16921        -2.77118        -0.00780
   C       -0.95389        -3.61771        -0.01432
   S       -2.83160        -1.25183        -0.00910
   C       -3.43618         0.36901        -0.00517
   C       -2.46165         1.29577        -0.00073
   H        4.55191        -0.46547         0.00580
   H        2.68141        -2.30763        -0.00197
   H        0.60389         4.67870         0.03049
   H        1.63168         3.53246        -0.86148
   H        1.61393         3.51709         0.92319
   H       -0.55031        -4.62967        -0.01675
   H       -1.56657        -3.47258        -0.90811
   H       -1.57210        -3.47911         0.87669
   H       -4.49842         0.51454        -0.00639
   H       -2.62795         2.35675         0.00217
*
