# ORCA input file
# SCF done        -34.748929291311          0.000946788910
! B3LYP/G D3BJ Opt RIJCOSX def2-SVP def2/J
* xyz 0 1
   C       -1.35540         0.16623         0.26152
   C       -0.53286         1.19021        -0.07599
   C        0.81121         0.77655        -0.18659
  Cl        2.06950         1.86633        -0.60121
   C        1.01136        -0.56401         0.06488
   S       -0.51244        -1.31654         0.44865
   C        2.23001        -1.30627         0.03461
   C        2.42879        -2.64866         0.27726
  Cl        1.17008        -3.73885         0.69147
   C        3.77115        -3.06471         0.15468
   C        4.59384        -2.04067        -0.18030
   S        3.75347        -0.55442        -0.35211
   H       -2.41602         0.18837         0.41160
   H       -0.84996         2.20247        -0.24215
   H        4.08685        -4.07876         0.31192
   H        5.65282        -2.06513        -0.34049
*
