# ORCA input file
# SCF done        -13.321813245672          0.000630403090
! B3LYP/G D3BJ Opt RIJCOSX def2-SVP def2/J
* xyz 0 1
   C        1.31626         0.23951         0.00296
   C        0.74240        -0.97732         0.00587
   C       -0.71639        -0.98244         0.00894
   C       -1.29878         0.23033         0.00847
  Si        0.00409         1.55894         0.00389
   H        0.00372         2.39003         1.21113
   H       -0.00135         2.38666        -1.20565
   H        2.38870         0.35311         0.00057
   H        1.28464        -1.91238         0.00605
   H       -1.25206        -1.92126         0.01139
   H       -2.37199         0.33640         0.01058
*
