# ORCA input file
# SCF done        -21.832343434144          0.000493887177
! B3LYP/G D3BJ Opt RIJCOSX def2-SVP def2/J
* xyz 0 1
   C       -0.88904        -1.43228         0.02085
   C       -2.07900        -0.76612         0.01925
   C       -2.11958         0.64608         0.01522
   C       -0.96983         1.37948         0.01286
   C        0.28668         0.73655        -0.04052
   C        1.53373         1.37085        -0.17343
  Si        2.66845         0.07803         0.38303
   C        1.60994        -1.28095        -0.16601
   C        0.32850        -0.71857        -0.03643
   H       -0.86018        -2.51332         0.03108
   H       -3.01017        -1.31473         0.03028
   H       -3.08072         1.14038         0.02328
   H       -1.00310         2.46044         0.01694
   H        1.59480         2.44457        -0.07215
   H        1.73255        -2.34881        -0.05867
*
