# ORCA input file
# SCF done        -25.207639955132          0.000490597272
! B3LYP/G D3BJ Opt RIJCOSX def2-SVP def2/J
* xyz 0 1
   C       -0.91390        -1.37864         0.00046
   N       -2.01272        -0.69327        -0.00055
   N       -2.03113         0.63753        -0.00179
   C       -0.95168         1.35303        -0.00210
   C        0.32036         0.72513        -0.00108
   C        0.34029        -0.71580         0.00027
   N        1.60721        -1.08878         0.00105
   O        2.31413         0.03210        -0.00003
   N        1.57648         1.13300        -0.00090
   H       -0.99511        -2.45460         0.00139
   H       -1.06262         2.42633        -0.00300
*
