# ORCA input file
# SCF done        -34.778103124389          0.000317274971
! B3LYP/G D3BJ Opt RIJCOSX def2-SVP def2/J
* xyz 0 1
   C       -1.28303         0.54528        -0.67571
   C       -0.19355         1.30196        -0.37569
   C        0.94105         0.53242        -0.04360
   C        0.65449        -0.82599        -0.10766
   S       -0.97148        -1.14823        -0.56630
   C        1.73342        -1.70395         0.21048
   C        2.93385        -1.08932         0.54578
  Si        2.72792         0.76861         0.45964
   C        2.93301         1.62770         2.11307
   C        3.78227         1.56647        -0.86948
   C        3.92575        -2.04850         0.83842
   C        3.48059        -3.32856         0.72532
   S        1.82350        -3.42090         0.25353
   H       -2.26449         0.87237        -0.95843
   H       -0.20231         2.37764        -0.39113
   H        2.61551         2.66757         2.06630
   H        3.97156         1.62831         2.43825
   H        2.35147         1.15090         2.89963
   H        3.64553         1.09440        -1.84022
   H        4.84197         1.50424        -0.63033
   H        3.54649         2.62171        -0.99051
   H        4.93276        -1.79873         1.12279
   H        4.02232        -4.23949         0.88916
*
