# ORCA input file
# SCF done        -24.338085129978          0.000563102721
! B3LYP/G D3BJ Opt RIJCOSX def2-SVP def2/J
* xyz 0 1
   C       -0.75480         1.17245        -0.00750
   C        0.62642         1.24779        -0.00718
   C        1.35986         0.07407        -0.00118
   F        2.70558         0.14747        -0.00086
   C        0.75843        -1.17246         0.00450
   C       -0.62279        -1.24780         0.00417
   C       -1.35623        -0.07408        -0.00183
   F       -2.70195        -0.14748        -0.00215
   H       -1.36346         2.06232        -0.01207
   H        1.13469         2.19858        -0.01148
   H        1.36709        -2.06232         0.00907
   H       -1.13106        -2.19858         0.00847
*
