# ORCA input file
# SCF done        -36.981140463107          0.000550268565
! B3LYP/G D3BJ Opt RIJCOSX def2-SVP def2/J
* xyz 0 1
   C       -0.69539         1.20746        -0.00024
   F       -1.36066         2.36246        -0.00054
   C        0.69760         1.20735         0.00025
   F        1.36160         2.36076         0.00041
   C        1.39720         0.00278         0.00057
   F        2.73009         0.00747         0.00103
   C        0.69006        -1.19690         0.00039
   F        1.35528        -2.35192         0.00069
   C       -0.69343        -1.20895        -0.00009
   C       -1.37775        -0.00649        -0.00041
   F       -2.71063        -0.01123        -0.00087
   H       -1.23117        -2.14303        -0.00023
*
