# ORCA input file
# SCF done        -27.567590639546          0.000917020375
! B3LYP/G D3BJ Opt RIJCOSX def2-SVP def2/J
* xyz 0 1
   C       -0.76321        -0.97416        -0.36887
   S       -1.44008         0.64769        -0.33953
   C        0.16743         1.37675        -0.05578
   O        0.36339         2.54973         0.05888
   N        1.11185         0.38404         0.00553
   C        0.70232        -0.92259        -0.15205
   O        1.44549        -1.86979        -0.11744
   C        2.50766         0.69894         0.22945
   C       -1.43490        -2.10618        -0.55681
   H        2.62323         1.78026         0.20322
   H        3.11010         0.23146        -0.54924
   H        2.82263         0.31188         1.19926
   H       -2.49795        -2.12605        -0.71475
   H       -0.90014        -3.04163        -0.55172
*
