# ORCA input file
# SCF done        -62.953648839705          0.000841801279
! B3LYP/G D3BJ Opt RIJCOSX def2-SVP def2/J
* xyz 0 1
   C        3.50609        -0.40341        -0.10185
   C        2.54005        -1.34267        -0.12290
   C        1.22487        -0.78896        -0.09713
   C       -0.00454        -1.46951        -0.09966
   C       -0.05965        -2.91720        -0.03282
   C        0.66011        -3.74718         0.77827
   C        0.35770        -5.11142         0.59092
   C       -0.58458        -5.32994        -0.36534
   S       -1.13274        -3.83494        -1.05269
   C       -1.15101        -6.62365        -0.82930
   C       -1.14952        -0.68008        -0.15148
   C       -1.11730         0.73315        -0.14192
   C        0.11061         1.41317        -0.07859
   C        1.25684         0.62422        -0.08688
   S        2.89773         1.21503        -0.05363
   C        0.16238         2.86005         0.00816
   C       -0.58993         3.68011         0.79952
   C       -0.28065         5.04652         0.64104
   C        0.69925         5.27635        -0.27401
   S        1.27539         3.78970        -0.95649
   C        1.28455         6.57529        -0.69784
   C       -2.42973         1.28822        -0.22136
   C       -3.39574         0.34934        -0.25774
   S       -2.79033        -1.27008        -0.20215
   H        4.56859        -0.54958        -0.11910
   H        2.73514        -2.39785        -0.17848
   H        1.35672        -3.38833         1.51514
   H        0.82527        -5.90283         1.15000
   H       -0.60765        -7.45083        -0.37913
   H       -1.08704        -6.70616        -1.91312
   H       -2.20183        -6.70353        -0.55129
   H       -1.31602         3.31219         1.50284
   H       -0.77052         5.83129         1.19048
   H        0.70070         7.39728        -0.29125
   H        1.30136         6.65503        -1.78344
   H        2.31058         6.66719        -0.34192
   H       -2.62155         2.34428        -0.27146
   H       -4.45635         0.49631        -0.32247
*
