# ORCA input file
# SCF done        -22.262346628214          0.000592623160
! B3LYP/G D3BJ Opt RIJCOSX def2-SVP def2/J
* xyz 0 1
   C       -1.26135         0.11145        -0.00294
   C       -0.37531         1.14144        -0.00007
   F       -0.73158         2.42972         0.00233
   C        0.97543         0.70270         0.00010
   F        2.02075         1.53569         0.00268
   C        1.08709        -0.65136        -0.00264
   S       -0.45463        -1.40137        -0.00544
   H       -2.33057         0.16756        -0.00368
   H        1.98521        -1.23426        -0.00314
*
