# ORCA input file
# SCF done        -26.011583790340          0.000308374708
! B3LYP/G D3BJ Opt RIJCOSX def2-SVP def2/J
* xyz 0 1
   C       -1.20373         1.37346        -0.03677
   C       -2.36444         0.65161        -0.04317
   C       -2.33956        -0.75441        -0.02448
   C       -1.15405        -1.43432         0.00052
   C        0.06065        -0.72014         0.00775
   N        1.23454        -1.38722         0.03228
   C        2.32694        -0.67340         0.03777
   C        2.30198         0.73741         0.01913
   N        1.18501         1.41175        -0.00478
   C        0.03547         0.70313        -0.01113
   H       -1.19948         2.45227        -0.05075
   H       -3.31781         1.15900        -0.06257
   H       -3.27438        -1.29553        -0.02995
   H       -1.11163        -2.51229         0.01517
   H        3.26250        -1.21678         0.05792
   H        3.21772         1.31389         0.02451
*
