# ORCA input file
# SCF done        -30.441581100823          0.000943004630
! B3LYP/G D3BJ Opt RIJCOSX def2-SVP def2/J
* xyz 0 1
   C        1.31953         1.10153        -0.49794
   C        0.07316         0.63996        -0.21649
   O       -1.07443         1.37475        -0.30850
   C       -2.14648         0.76347         0.38125
   C       -2.24349        -0.73642         0.06625
   C       -2.48041        -0.97789        -1.42359
   O       -1.06911        -1.40153         0.51687
   C        0.07252        -0.72886         0.19393
   C        1.32172        -1.26396         0.22389
   S        2.51037        -0.11655        -0.25716
   H        1.59895         2.07772        -0.83418
   H       -3.04942         1.28527         0.06178
   H       -2.01320         0.89316         1.46499
   H       -3.05465        -1.17774         0.65442
   H       -1.71928        -0.47520        -2.01652
   H       -3.45721        -0.59619        -1.70851
   H       -2.43826        -2.04351        -1.63189
   H        1.60485        -2.25715         0.50212
*
