# ORCA input file
# SCF done        -32.773499930982          0.000443785464
! B3LYP/G D3BJ Opt RIJCOSX def2-SVP def2/J
* xyz 0 1
   C       -0.76579         1.16684        -0.00513
   C        0.61624         1.23413        -0.00241
   F        1.21359         2.42996        -0.00172
   C        1.37738         0.06891        -0.00041
   F        2.71246         0.13539         0.00221
   C        0.76043        -1.16960        -0.00113
   C       -0.62160        -1.23688        -0.00384
   C       -1.38275        -0.07167        -0.00584
   F       -2.71782        -0.13815        -0.00846
   F       -1.21895        -2.43271        -0.00453
   H       -1.35515         2.06906        -0.00667
   H        1.34978        -2.07182         0.00042
*
