# ORCA input file
# SCF done        -38.792016002617          0.000660636090
! B3LYP/G D3BJ Opt RIJCOSX def2-SVP def2/J
* xyz 0 1
   C       -0.73251         1.18839        -0.03033
   C        0.64819         1.20162        -0.02786
   F        1.26948         2.39769        -0.02507
   C        1.41785         0.03592        -0.02967
   O        2.76593         0.17527        -0.03243
   C        3.55507        -0.99046        -0.05164
   C        0.72770        -1.17254        -0.02948
   C       -0.65301        -1.18577        -0.03140
   C       -1.42266        -0.02006        -0.03422
   O       -2.77071        -0.15941        -0.04147
   C       -3.55981         1.00634        -0.06148
   F       -1.27431        -2.38183        -0.03205
   H       -1.24553         2.13537        -0.02961
   H        4.58666        -0.64306        -0.06328
   H        3.36326        -1.58854        -0.94776
   H        3.38787        -1.60220         0.84012
   H        1.24072        -2.11951        -0.02833
   H       -4.59134         0.65894        -0.07719
   H       -3.36497         1.60589        -0.95596
   H       -3.39565         1.61662         0.83185
*
