# ORCA input file
# SCF done        -21.354131586220          0.000292835555
! B3LYP/G D3BJ Opt RIJCOSX def2-SVP def2/J
* xyz 0 1
   C       -2.26046        -0.06591         0.00058
   C       -1.40792        -1.12137         0.00047
   C       -0.06599        -0.68714         0.00041
   C        0.07599         0.69475         0.00046
   S       -1.46588         1.47389         0.00057
   C        1.41791         1.12897         0.00040
   C        2.27045         0.07352         0.00031
   S        1.47587        -1.46628         0.00026
   H       -3.33220        -0.08669         0.00064
   H       -1.71499        -2.15076         0.00043
   H        1.72498         2.15837         0.00042
   H        3.34219         0.09430         0.00024
*
