# ORCA input file
# SCF done        -28.277714621681          0.000241796828
! B3LYP/G D3BJ Opt RIJCOSX def2-SVP def2/J
* xyz 0 1
   C       -1.28941         0.04938        -0.00346
   C       -0.39628         1.07353        -0.00049
   O       -0.64318         2.40604         0.00321
   C       -1.99475         2.79366         0.00386
   C        0.96645         0.60827        -0.00165
   O        1.97670         1.51155         0.00099
   C        3.28312         0.99168        -0.00065
   C        1.04676        -0.74824        -0.00546
   S       -0.51017        -1.48831        -0.00770
   H       -2.35903         0.08492        -0.00348
   H       -1.99433         3.88210         0.00684
   H       -2.51441         2.42492         0.89461
   H       -2.51386         2.42979        -0.88921
   H        3.94843         1.85311         0.00187
   H        3.46996         0.38689        -0.89439
   H        3.47011         0.38157         0.88943
   H        1.91478        -1.37425        -0.00714
*
