# ORCA input file
# SCF done       -197.732939115567          0.000702489081
! CAM-B3LYP def2-SVP def2/J RIJCOSX Grid4 TightSCF
%maxcore 5000
%tddft
    Mode sTDDFT
    Ethresh 5.0
    maxcore 5000
end

%pal
  nprocs 6
  end
* xyz 0 1
   C        2.65354         3.20223        -8.51581
   C        1.69288         3.08972        -9.48022
   C        1.57561         1.99256       -10.36071
   N        1.43332         1.12514       -11.09802
   C        0.67389         4.04455        -9.68709
   N       -0.19022         4.77714        -9.86922
   C        3.68330         2.22568        -8.18989
   C        4.42543         2.68273        -7.05843
   C        5.45096         1.95217        -6.52807
   C        5.78990         0.71251        -7.11359
   C        5.05788         0.25225        -8.24720
   C        4.00139         1.02760        -8.77508
   C        5.40736        -0.98553        -8.82480
   C        6.42908        -1.73482        -8.30811
   C        7.14826        -1.28150        -7.19181
   C        6.83600        -0.08398        -6.60739
   C        3.90884         3.98786        -6.63244
   O        4.26336         4.68908        -5.70980
   C        2.81674         4.31494        -7.59197
   C        2.22075         5.52112        -7.56394
   C        2.59205         6.54301        -6.60140
   C        3.46084         7.56324        -6.89284
   N        4.14165         7.67492        -8.11408
   O        3.88045         6.84088        -8.97268
   O        4.93346         8.58549        -8.25371
   C        3.60144         8.44215        -5.74954
   C        2.76926         7.99979        -4.78687
   C        2.07766         6.80905        -5.25659
   C        1.15997         6.05228        -4.57488
   C        0.83822         4.67591        -4.83080
   C        0.25256         4.15429        -3.72493
   C        0.06479         5.20107        -2.75330
   N       -0.58589         4.97862        -1.52886
   O       -0.96224         3.84299        -1.29518
   O       -0.73542         5.91776        -0.76083
   C        0.53234         6.39999        -3.27556
   C        0.28069         7.69060        -2.75868
   C        0.20366         8.82035        -3.51427
   C       -0.13375        10.12701        -3.03792
   C       -0.42483        10.41073        -1.69134
   C       -0.77937        11.67598        -1.29648
   C       -0.85800        12.73144        -2.22075
   C       -0.53718        12.45516        -3.56081
   C       -0.19177        11.18873        -3.95931
   C       -1.27022        14.06464        -1.87803
   C       -1.72962        14.46765        -0.67086
   C       -2.18320        15.77880        -0.36622
   S       -2.80938        16.05219         1.24042
   C       -3.18936        17.72290         0.90409
   C       -2.83652        18.01238        -0.40944
   C       -2.27773        16.94059        -1.13000
   C       -1.95953        17.37039        -2.49634
   O       -1.49654        16.72018        -3.40295
   C       -2.33635        18.84219        -2.58022
   C       -2.96933        19.20864        -1.24771
   O       -3.49587        20.25496        -0.96530
   C       -3.73567        18.68645         1.78014
   C       -4.24980        18.51295         3.03055
   C       -4.83719        19.55177         3.86355
   C       -4.63744        20.89897         3.73957
   C       -5.23738        21.85985         4.58165
   N       -5.70791        22.68204         5.22929
   C       -3.74900        21.50172         2.82066
   N       -3.00258        22.05331         2.14626
   C       -5.59030        18.88858         4.92119
   C       -5.35148        17.48551         4.83499
   C       -4.47110        17.21243         3.69322
   O       -4.02854        16.13033         3.35274
   C       -5.90223        16.60231         5.71939
   C       -6.74202        17.09033         6.74446
   C       -6.99851        18.49003         6.82904
   C       -6.40823        19.38107         5.90302
   C       -7.84449        18.96354         7.85222
   C       -8.40763        18.09881         8.75128
   C       -8.15199        16.72184         8.66880
   C       -7.33704        16.22806         7.68642
   H        5.99797         2.31771        -5.67170
   H        3.46795         0.65542        -9.63549
   H        4.85070        -1.33015        -9.68370
   H        6.68905        -2.68156        -8.75696
   H        7.95123        -1.88590        -6.79756
   H        7.38670         0.27012        -5.74841
   H        1.47609         5.80058        -8.29946
   H        4.27876         9.27332        -5.72017
   H        2.66906         8.39798        -3.79693
   H        1.12073         4.13654        -5.71129
   H       -0.04939         3.13711        -3.55931
   H        0.01621         7.72192        -1.71093
   H        0.35973         8.74388        -4.58308
   H       -0.38552         9.62239        -0.95624
   H       -1.00153        11.85579        -0.25646
   H       -0.57918        13.25744        -4.28254
   H        0.04199        10.99532        -4.99632
   H       -1.22678        14.78729        -2.68187
   H       -1.79930        13.77299         0.15574
   H       -3.01482        19.03280        -3.41402
   H       -1.44679        19.45125        -2.75837
   H       -3.77024        19.67934         1.34334
   H       -5.70036        15.54469         5.63640
   H       -6.62410        20.43408         5.99092
   H       -8.03722        20.02444         7.91342
   H       -9.05337        18.47173         9.53193
   H       -8.60403        16.05439         9.38695
   H       -7.13672        15.16893         7.61714
*
