# ORCA input file
# SCF done       -205.033610966002          0.000304516757
! CAM-B3LYP def2-SVP def2/J RIJCOSX Grid4 TightSCF
%maxcore 5000
%tddft
    Mode sTDDFT
    Ethresh 5.0
    maxcore 5000
end

%pal
  nprocs 6
  end
* xyz 0 1
   C        7.13897         8.77792        -2.91449
   C        6.19008         9.41289        -3.67376
   C        6.47250        10.11397        -4.86444
   N        6.63754        10.69486        -5.84019
   C        4.81620         9.37869        -3.38811
   N        3.67757         9.34952        -3.23020
   C        8.53703         8.60019        -3.27169
   C        9.06354         7.50532        -2.52338
   C       10.36005         7.10194        -2.66392
   C       11.20213         7.79194        -3.56534
   C       10.68448         8.89648        -4.30339
   C        9.33617         9.28883        -4.14372
   C       11.54081         9.58274        -5.18842
   C       12.84502         9.19789        -5.34070
   C       13.35306         8.10969        -4.61547
   C       12.54898         7.42136        -3.74778
   C        8.02026         6.98167        -1.62627
   O        8.06106         6.01814        -0.89786
   C        6.88808         7.94886        -1.75273
   C        5.95877         8.01107        -0.76898
   C        5.03850         9.05087        -0.44857
   C        5.15542        10.43591        -0.61306
   N        6.26989        11.19489        -0.99700
   O        6.11262        12.39967        -1.11565
   O        7.34079        10.63407        -1.19541
   C        3.94420        11.07174        -0.18410
   C        3.06066        10.10915         0.17523
   C        3.69784         8.81926         0.05265
   C        3.07866         7.61528         0.38334
   C        3.60934         6.45688         0.98488
   C        2.57103         5.65451         1.41070
   C        1.34015         6.23329         1.02454
   N        0.09155         5.64616         1.25638
   O       -0.91054         6.23476         0.86727
   O        0.06726         4.58050         1.84774
   C        1.60884         7.42751         0.32541
   C        0.72739         8.17354        -0.44268
   C        1.12038         9.02543        -1.46602
   C        0.33924         9.94677        -2.14842
   S        0.98038        10.61265        -3.62371
   C       -0.39849        11.61529        -3.88863
   C       -1.37016        11.42323        -2.87366
   C       -0.93761        10.51143        -1.86566
   C       -1.74042        10.28704        -0.74405
   C       -2.98551        10.88805        -0.67441
   C       -3.80902        10.68566         0.45899
   N       -4.48451        10.54699         1.37361
   C       -3.46072        11.69892        -1.72471
   C       -2.66466        11.96626        -2.80619
   C       -0.39056        12.47642        -5.00804
   C       -1.11937        13.61700        -5.15521
   C       -1.10307        14.43679        -6.30952
   S       -1.94607        15.96271        -6.28909
   C       -1.53218        16.29445        -7.94058
   C       -0.75629        15.25147        -8.46313
   C       -0.51843        14.22162        -7.54529
   C       -0.19479        15.22283        -9.75469
   N        0.31507        15.14604       -10.77840
   C       -1.98664        17.49258        -8.54018
   C       -1.97259        17.77132        -9.87126
   C       -2.44679        19.01396       -10.35728
   C       -2.62277        19.31939       -11.67463
   C       -3.04611        20.59436       -12.22832
   C       -3.32035        21.74296       -11.53123
   C       -3.71934        22.95703       -12.13057
   N       -4.04887        23.97347       -12.54982
   C       -3.25020        21.89340       -10.13049
   N       -3.21824        22.09660        -9.00044
   C       -3.11798        20.44723       -13.67720
   C       -2.75051        19.11477       -14.02222
   C       -2.44024        18.35672       -12.79991
   O       -2.13796        17.18619       -12.72551
   C       -2.73186        18.68217       -15.31705
   C       -3.08714        19.57955       -16.34840
   C       -3.45594        20.91475       -16.01279
   C       -3.46514        21.33401       -14.66308
   C       -3.81207        21.80180       -17.04927
   C       -3.80594        21.39115       -18.35450
   C       -3.44316        20.07634       -18.68360
   C       -3.09077        19.18991       -17.70211
   H       10.74270         6.27011        -2.09128
   H        8.97081        10.13955        -4.69768
   H       11.14447        10.41879        -5.74553
   H       13.49304         9.73032        -6.02065
   H       14.38508         7.82050        -4.74645
   H       12.93565         6.58363        -3.18605
   H        5.96233         7.15695        -0.10207
   H        3.81416        12.13596        -0.15271
   H        2.08835        10.26405         0.60017
   H        4.64355         6.27539         1.20192
   H        2.65497         4.73151         1.95395
   H       -0.32471         7.96960        -0.28925
   H        2.13011         8.92123        -1.84796
   H       -1.40709         9.66393         0.06912
   H       -4.45672        12.10968        -1.65975
   H       -3.04473        12.56829        -3.61442
   H        0.32496        12.21877        -5.77773
   H       -1.72623        13.97714        -4.33768
   H        0.05813        13.34767        -7.78972
   H       -2.41533        18.21991        -7.85989
   H       -1.61915        17.04419       -10.58700
   H       -2.67940        19.76181        -9.60970
   H       -2.44969        17.66610       -15.54960
   H       -3.75088        22.35043       -14.44414
   H       -4.09058        22.81292       -16.79098
   H       -4.08095        22.07758       -19.14114
   H       -3.44447        19.76949       -19.71874
   H       -2.81048        18.17653       -17.94930
*
