# ORCA input file
# SCF done       -193.062852905627          0.000398208084
! CAM-B3LYP def2-SVP def2/J RIJCOSX Grid4 TightSCF
%maxcore 5000
%tddft
    Mode sTDDFT
    Ethresh 5.0
    maxcore 5000
end

%pal
  nprocs 6
  end
* xyz 0 1
   C       -1.34062         5.65463        -2.13774
   C       -0.68266         5.09031        -3.19624
   C       -0.78514         5.56198        -4.52294
   N       -0.83022         5.90723        -5.61616
   C        0.11363         3.92938        -3.12145
   N        0.73538         2.96478        -3.14192
   C       -2.32662         6.72486        -2.23649
   C       -3.11857         6.73282        -1.05042
   C       -4.15091         7.61082        -0.88157
   C       -4.43705         8.54272        -1.90370
   C       -3.63638         8.55392        -3.08307
   C       -2.57680         7.63093        -3.23285
   C       -3.92691         9.49457        -4.09232
   C       -4.96058        10.37916        -3.94763
   C       -5.74939        10.36616        -2.78723
   C       -5.49335         9.46782        -1.78719
   C       -2.62068         5.70344        -0.12609
   O       -3.06707         5.37275         0.94675
   C       -1.37916         5.16458        -0.76845
   C       -0.52152         4.44412        -0.01363
   C        0.85606         4.09326        -0.27792
   C        1.40802         2.91120         0.30285
   C        2.73936         2.61515         0.13946
   C        3.57247         3.45815        -0.61672
   C        3.03510         4.65410        -1.16946
   C        1.67773         4.95110        -0.97893
   N        3.81578         5.50722        -1.86791
   C        5.06707         5.17310        -2.02114
   C        5.59563         3.97325        -1.49261
   N        4.86922         3.13670        -0.80485
   C        0.59914         2.03129         1.14041
   N       -0.57314         1.42354         0.77828
   C       -1.12990         1.33479        -0.54996
   C       -0.27860         0.45302        -1.45656
   C       -1.10647         0.65697         1.83985
   O       -2.13273         0.01165         1.74356
   C       -0.18052         0.85510         2.92599
   C        0.87138         1.69164         2.44777
   C        1.79855         1.91808         3.53515
   O        2.82802         2.55100         3.61487
   N        1.24914         1.18339         4.60594
   C        1.87666         1.18587         5.90462
   C        1.20521         2.16885         6.86106
   C        0.06930         0.56140         4.26130
   C       -0.70353        -0.21447         5.16430
   C       -1.87412        -0.79512         4.79801
   C       -2.71108        -1.54740         5.66337
   S       -4.19411        -2.21555         5.04926
   C       -4.61665        -2.88332         6.59263
   C       -3.62257        -2.58995         7.53538
   C       -2.56080        -1.84456         7.00544
   C       -3.63669        -2.96737         8.88933
   N       -3.58692        -3.24040        10.00290
   C       -5.84856        -3.56967         6.72182
   C       -6.31696        -4.15025         7.85750
   C       -7.56425        -4.81269         7.99118
   C       -8.72889        -4.60119         7.30766
   C       -9.94076        -5.38358         7.49127
   C      -10.01527        -6.64654         8.01803
   C      -11.21688        -7.37208         8.15635
   N      -12.16174        -8.00784         8.30110
   C       -8.91073        -7.41201         8.44863
   N       -8.06351        -8.10731         8.79113
   C      -11.05373        -4.63257         6.92618
   C      -10.53672        -3.45112         6.32417
   C       -9.07349        -3.40618         6.48871
   O       -8.33722        -2.53723         6.07213
   C      -11.34391        -2.54757         5.69515
   C      -12.73445        -2.78994         5.63891
   C      -13.26182        -3.96559         6.24741
   C      -12.40020        -4.88246         6.89252
   C      -14.65156        -4.19488         6.18832
   C      -15.48115        -3.30910         5.55615
   C      -14.96041        -2.15307         4.95559
   C      -13.61630        -1.89903         4.99613
   H       -4.74208         7.59416         0.02192
   H       -1.97988         7.67025        -4.13050
   H       -3.31908         9.49835        -4.98509
   H       -5.17693        11.09400        -4.72720
   H       -6.56064        11.07185        -2.68983
   H       -6.09704         9.45331        -0.89163
   H       -0.90583         4.15486         0.96118
   H        3.17016         1.73194         0.58362
   H        1.30816         5.89074        -1.36138
   H        5.68745         5.85931        -2.58179
   H        6.63233         3.70504        -1.64545
   H       -1.22734         2.33486        -0.98044
   H       -2.12641         0.90149        -0.42516
   H        0.70188         0.89665        -1.61094
   H       -0.76138         0.35048        -2.42389
   H       -0.16008        -0.53461        -1.01671
   H        2.91330         1.49176         5.73684
   H        1.87154         0.17277         6.31676
   H        1.26639         3.17639         6.45738
   H        1.70907         2.14906         7.82347
   H        0.15649         1.91942         7.00812
   H       -0.33368        -0.32684         6.17251
   H       -2.22361        -0.67765         3.78060
   H       -1.71923        -1.53432         7.59874
   H       -6.43349        -3.62507         5.81623
   H       -5.68245        -4.17792         8.73331
   H       -7.59387        -5.54468         8.79076
   H      -10.92532        -1.66054         5.24312
   H      -12.83030        -5.75966         7.34927
   H      -15.04773        -5.08717         6.65048
   H      -16.54398        -3.49474         5.51487
   H      -15.62952        -1.46495         4.46088
   H      -13.20914        -1.01065         4.53569
*
