# ORCA input file
# SCF done       -256.481902842586          0.000962687915
! CAM-B3LYP def2-SVP def2/J RIJCOSX Grid4 TightSCF
%maxcore 5000
%tddft
    Mode sTDDFT
    Ethresh 5.0
    maxcore 5000
end

%pal
  nprocs 6
  end
* xyz 0 1
   C        0.51029        -6.45431         1.24148
   C        0.66402        -7.21004         2.37039
   F        1.63258        -6.92321         3.24495
   C       -0.19426        -8.29959         2.62729
   F       -0.02029        -9.02319         3.73806
   C       -1.19472        -8.61715         1.75168
   C       -1.37813        -7.85720         0.57992
   C       -0.51149        -6.75548         0.31887
   C       -0.67996        -5.97759        -0.84913
   C       -1.68348        -6.29056        -1.72806
   C       -2.54043        -7.39815        -1.46528
   C       -2.40002        -8.16639        -0.34360
   C       -3.50734        -7.54319        -2.56345
   O       -4.32868        -8.43126        -2.69767
   C       -3.19168        -6.45611        -3.52093
   C       -2.10230        -5.66448        -2.97571
   C       -1.63591        -4.48803        -3.49248
   C       -2.20283        -3.85171        -4.61873
   N       -2.67030        -3.27461        -5.49305
   C       -0.57823        -3.74207        -2.92905
   N        0.28030        -3.10710        -2.51051
   C       -3.71758        -6.39653        -4.77306
   C       -4.86869        -7.13500        -5.17359
   C       -4.99472        -7.97211        -6.26243
   N       -3.96728        -8.23281        -7.19416
   O       -2.86265        -7.77533        -6.94528
   O       -4.24551        -8.88093        -8.18040
   C       -6.28643        -8.60793        -6.24281
   C       -6.93881        -8.20732        -5.12225
   C       -6.12428        -7.24588        -4.42419
   C       -6.52002        -6.39831        -3.41306
   C       -6.11677        -5.03539        -3.26632
   C       -6.98326        -4.41461        -2.41420
   C       -7.90632        -5.37901        -1.89950
   N       -8.87519        -5.06233        -0.92805
   O       -9.62530        -5.94497        -0.54428
   O       -8.90663        -3.91289        -0.52918
   C       -7.61498        -6.63128        -2.44634
   C       -8.04872        -7.87809        -1.97051
   C       -7.35264        -9.04495        -2.16082
   C       -7.64920       -10.25157        -1.51149
   S       -8.99349       -10.44184        -0.42545
   C       -8.50726       -12.06330        -0.02624
   C       -7.32158       -12.41812        -0.69809
   C       -6.86306       -11.41794        -1.54368
   C       -5.64889       -11.55400        -2.42331
   C       -6.03573       -11.30264        -3.79568
   N       -6.36169       -11.14922        -4.87933
   C       -5.03989       -12.96262        -2.33356
   C       -5.05672       -13.45276        -0.89444
   C       -6.51052       -13.66017        -0.43260
   C       -6.48888       -13.98674         0.97679
   N       -6.40388       -14.25156         2.08583
   C       -9.25682       -12.77652         0.92609
   C       -9.25299       -14.14142         1.05751
   C       -9.69649       -14.91200         2.14617
   C       -9.87233       -14.61691         3.49995
   N       -9.98758       -13.37734         4.15445
   O      -10.31491       -12.39514         3.50645
   O       -9.77041       -13.36164         5.35151
   C       -9.84967       -15.83810         4.25278
   C       -9.67028       -16.88977         3.40804
   C       -9.64185       -16.39108         2.06852
   C       -9.76240       -17.13286         0.91521
   C      -10.44442       -16.71701        -0.27699
   C      -10.68620       -17.81322        -1.04528
   C      -10.08541       -18.95764        -0.42143
   N      -10.09469       -20.23628        -1.01964
   O       -9.55871       -21.15902        -0.43121
   O      -10.65770       -20.34022        -2.09260
   C       -9.47507       -18.56911         0.76628
   C       -8.53911       -19.31687         1.51852
   C       -7.50792       -18.75281         2.20928
   C       -6.47896       -19.52752         2.78531
   C       -5.24292       -19.09161         3.16235
   C       -4.39247       -19.96452         4.02627
   O       -4.60405       -21.12066         4.30170
   C       -3.29137       -19.10038         4.48975
   C       -2.29688       -19.38201         5.38164
   C       -1.35490       -18.37790         5.69871
   C       -1.47542       -17.09123         5.09654
   C       -0.53884       -16.09046         5.42473
   C        0.47384       -16.35639         6.30335
   C        0.59364       -17.63038         6.89617
   C       -0.30185       -18.62051         6.60182
   F        1.59485       -17.86193         7.75240
   F        1.36530       -15.40756         6.60905
   C       -2.51609       -16.82990         4.17643
   C       -3.40273       -17.82602         3.86377
   C       -4.53272       -17.85244         2.93612
   C       -4.70658       -16.95337         1.91518
   C       -5.66280       -16.99685         0.88159
   N       -6.36171       -16.92520        -0.02870
   C       -3.84189       -15.86131         1.68144
   N       -3.18376       -14.96538         1.39423
   H        1.17494        -5.62398         1.06119
   H       -1.84162        -9.45385         1.96441
   H       -0.00638        -5.15407        -1.02340
   H       -3.06206        -8.99858        -0.15717
   H       -3.22004        -5.81756        -5.54279
   H       -6.62614        -9.29412        -6.99377
   H       -7.94121        -8.46311        -4.83979
   H       -5.35509        -4.55809        -3.85314
   H       -7.00287        -3.37422        -2.14832
   H       -8.90535        -7.87255        -1.30666
   H       -6.45449        -9.02884        -2.76039
   H       -4.90846       -10.79276        -2.14461
   H       -4.01803       -12.94018        -2.71300
   H       -5.61381       -13.65112        -2.95922
   H       -4.56483       -12.72805        -0.24166
   H       -4.51602       -14.39562        -0.81109
   H       -6.93098       -14.52283        -0.96832
   H       -9.87467       -12.18539         1.58990
   H       -8.83621       -14.72813         0.24983
   H       -9.96760       -15.86935         5.31989
   H       -9.67183       -17.92889         3.67336
   H      -10.82751       -15.72918        -0.44703
   H      -11.22875       -17.85998        -1.97064
   H       -8.55921       -20.39140         1.38549
   H       -7.42903       -17.67717         2.27459
   H       -6.68056       -20.57658         2.97807
   H       -2.22930       -20.35757         5.83824
   H       -0.61386       -15.11110         4.97868
   H       -0.19689       -19.58927         7.06450
   H       -2.59279       -15.84248         3.75041
*
