# ORCA input file
# SCF done       -235.561617406254          0.002162262214
! CAM-B3LYP def2-SVP def2/J RIJCOSX Grid4 TightSCF
%maxcore 5000
%tddft
    Mode sTDDFT
    Ethresh 5.0
    maxcore 5000
end

%pal
  nprocs 6
  end
* xyz 0 1
   C       -0.17994        -1.70102        -9.26256
   C        1.15717        -1.42678        -9.32243
   F        1.64554        -0.66798       -10.31179
   C        2.03824        -1.93669        -8.34682
   F        3.34359        -1.64957        -8.43071
   C        1.56962        -2.71437        -7.32522
   C        0.19636        -3.01494        -7.23493
   C       -0.69524        -2.49888        -8.22063
   C       -2.07642        -2.78596        -8.15118
   C       -2.55013        -3.56679        -7.12902
   C       -1.65229        -4.08315        -6.15087
   C       -0.31408        -3.81691        -6.18984
   C       -2.40642        -4.89218        -5.17558
   O       -2.03494        -5.29912        -4.10093
   C       -3.78590        -4.99056        -5.74335
   C       -3.89950        -4.02774        -6.82493
   C       -5.05342        -3.60692        -7.42900
   C       -6.34843        -4.02225        -7.05210
   N       -7.42463        -4.31082        -6.77456
   C       -5.09756        -2.66027        -8.47513
   N       -5.19548        -1.89486        -9.32432
   C       -4.72065        -5.88230        -5.34077
   C       -4.52761        -6.96360        -4.42840
   C       -3.50903        -7.89388        -4.34329
   N       -2.34857        -8.01018        -5.13736
   O       -2.21086        -7.26683        -6.09674
   O       -1.55863        -8.88457        -4.84051
   C       -3.87111        -8.91175        -3.38379
   C       -5.12528        -8.66462        -2.93455
   C       -5.59844        -7.45154        -3.54372
   C       -6.77852        -6.77872        -3.30954
   C       -6.96325        -5.36768        -3.39530
   C       -8.19409        -5.06192        -2.89870
   C       -8.88610        -6.26960        -2.55672
   N      -10.19994        -6.19614        -2.05703
   O      -10.74019        -7.20295        -1.62230
   O      -10.73608        -5.10288        -2.07049
   C       -8.05593        -7.36634        -2.83569
   C       -8.28435        -8.73998        -3.01430
   C       -9.43915        -9.44553        -2.77766
   C       -9.56822       -10.78966        -3.15720
   N      -10.72301       -11.51890        -2.99279
   C      -11.97592       -11.01936        -2.47149
   C      -12.72292       -10.17299        -3.49758
   C      -10.58806       -12.84022        -3.44562
   O      -11.46167       -13.68008        -3.38651
   C       -9.22117       -12.90819        -3.92232
   C       -8.62101       -11.65282        -3.74346
   C       -7.25445       -11.75759        -4.21062
   O       -6.35545       -10.94718        -4.28951
   N       -7.11345       -13.10533        -4.61297
   C       -5.85364       -13.55074        -5.16080
   C       -5.87180       -13.57987        -6.68655
   C       -8.28781       -13.79939        -4.47086
   C       -8.61673       -15.14244        -4.75346
   C       -7.85927       -16.15952        -5.24559
   C       -8.35947       -17.47483        -5.39267
   S      -10.02512       -17.87509        -5.03079
   C       -9.72688       -19.56421        -5.26042
   C       -8.41400       -19.77576        -5.68968
   C       -7.64736       -18.60333        -5.74609
   C       -7.90893       -21.05511        -5.99285
   N       -7.49995       -22.09147        -6.25811
   C      -10.68060       -20.60326        -5.03612
   C      -11.71385       -20.62905        -4.16258
   C      -12.10481       -19.69667        -3.15102
   C      -11.39311       -18.85169        -2.36307
   C      -12.12991       -17.78008        -1.62201
   O      -13.30493       -17.77009        -1.35431
   C      -11.11902       -16.73424        -1.36522
   C      -11.29636       -15.47316        -0.87450
   C      -10.18413       -14.60533        -0.79816
   C       -8.90899       -15.05854        -1.24343
   C       -7.82044       -14.16320        -1.23345
   C       -7.99096       -12.87553        -0.80863
   C       -9.24677       -12.43550        -0.34790
   C      -10.31855       -13.28364        -0.33178
   F       -9.38721       -11.16321         0.05314
   F       -6.96569       -12.01151        -0.84335
   C       -8.74807       -16.38223        -1.71185
   C       -9.83765       -17.21017        -1.76732
   C       -9.97391       -18.59437        -2.21417
   C       -8.95786       -19.50523        -2.33037
   C       -9.17616       -20.88128        -2.54355
   N       -9.32411       -22.00906        -2.69026
   C       -7.59516       -19.15755        -2.24252
   N       -6.47961       -18.88586        -2.23987
   H       -0.84098        -1.30278       -10.01646
   H        2.25739        -3.09752        -6.58786
   H       -2.72602        -2.38798        -8.91428
   H        0.34753        -4.22111        -5.43922
   H       -5.72047        -5.81633        -5.75235
   H       -3.22137        -9.72122        -3.11250
   H       -5.64506        -9.21128        -2.17273
   H       -6.20322        -4.66628        -3.67929
   H       -8.61978        -4.08474        -2.76744
   H       -7.45912        -9.28035        -3.45837
   H      -10.27626        -8.96694        -2.29410
   H      -11.78640       -10.44110        -1.56380
   H      -12.57012       -11.90277        -2.22266
   H      -12.14241        -9.29812        -3.77848
   H      -13.66511        -9.83892        -3.07353
   H      -12.92968       -10.75874        -4.39025
   H       -5.59856       -14.52686        -4.74170
   H       -5.10910       -12.82274        -4.82465
   H       -6.65072       -14.23987        -7.06180
   H       -4.90981       -13.92146        -7.05767
   H       -6.05364       -12.57923        -7.07069
   H       -9.65143       -15.36169        -4.51238
   H       -6.82274       -16.02956        -5.51577
   H       -6.60516       -18.59138        -6.01071
   H      -10.51800       -21.48592        -5.64388
   H      -12.37470       -21.48426        -4.23523
   H      -13.17586       -19.66334        -2.96339
   H      -12.27486       -15.13488        -0.57152
   H       -6.84786       -14.49009        -1.56722
   H      -11.27394       -12.93022         0.02255
   H       -7.76995       -16.70325        -2.03348
*
