# ORCA input file
# SCF done       -257.642221946558          0.000489516666
! CAM-B3LYP def2-SVP def2/J RIJCOSX Grid4 TightSCF
%maxcore 5000
%tddft
    Mode sTDDFT
    Ethresh 5.0
    maxcore 5000
end

%pal
  nprocs 6
  end
* xyz 0 1
   C       -0.48785        -0.76720        -0.64904
   C        0.61574        -0.26479        -1.27911
   F        0.97759         1.00938        -1.08904
   C        1.38701        -1.07865        -2.13478
   F        2.46256        -0.55858        -2.73791
   C        1.04424        -2.38464        -2.34634
   C       -0.08625        -2.93302        -1.70942
   C       -0.86854        -2.11045        -0.84595
   C       -2.00749        -2.63805        -0.19806
   C       -2.35273        -3.94878        -0.40577
   C       -1.56435        -4.76364        -1.26902
   C       -0.45826        -4.28071        -1.90711
   C       -2.13369        -6.11986        -1.31468
   O       -1.62880        -7.12910        -1.74435
   C       -3.44002        -6.01303        -0.58776
   C       -3.45899        -4.74071         0.11723
   C       -4.32529        -4.37591         1.10985
   C       -5.31624        -5.23270         1.63551
   N       -6.11266        -5.91464         2.10244
   C       -4.29424        -3.12709         1.76779
   N       -4.31346        -2.12939         2.33334
   C       -4.42088        -6.93303        -0.69359
   C       -4.37012        -8.06139        -1.58369
   C       -4.10627        -8.08594        -2.93716
   N       -3.79243        -7.01076        -3.79548
   O       -3.66711        -5.89116        -3.32250
   O       -3.68928        -7.26140        -4.97982
   C       -4.28047        -9.43179        -3.43854
   C       -4.68782       -10.22094        -2.42038
   C       -4.78334        -9.42249        -1.21900
   C       -5.05799        -9.84976         0.06074
   C       -4.59686        -9.22359         1.25946
   C       -4.74508       -10.09286         2.29986
   C       -5.37628       -11.28312         1.82655
   N       -5.67978       -12.36002         2.67210
   O       -6.16647       -13.37185         2.18407
   O       -5.41908       -12.23909         3.85506
   C       -5.65528       -11.14860         0.45945
   C       -6.45659       -11.99564        -0.31162
   C       -7.08663       -11.64732        -1.48702
   C       -7.77214       -12.55310        -2.29697
   S       -8.44305       -12.02946        -3.81645
   C       -8.87746       -13.63886        -4.28334
   C       -8.60128       -14.54517        -3.22707
   C       -8.00075       -13.94032        -2.10026
   N       -7.72387       -14.65039        -0.99668
   C       -8.02706       -15.93005        -1.00936
   O       -7.80264       -16.71068         0.02276
   C       -7.34025       -16.12014         1.24540
   C       -8.47839       -15.46467         2.00966
   C       -8.64785       -16.54660        -2.16175
   C       -9.00507       -18.00776        -2.13642
   N       -9.63444       -18.50449        -3.33314
   N       -8.92612       -15.85169        -3.22429
   C       -9.52789       -13.99328        -5.47266
   C      -10.52436       -13.28017        -6.15356
   N      -10.86396       -11.94627        -6.01041
   O      -10.07545       -11.20367        -5.41902
   O      -11.90615       -11.55178        -6.50973
   C      -11.25862       -14.18528        -6.99005
   C      -10.66651       -15.40409        -6.94352
   C       -9.48920       -15.32139        -6.12105
   C       -8.40224       -16.16422        -6.16361
   C       -7.22400       -16.13473        -5.32732
   C       -6.61032       -17.33728        -5.39839
   C       -7.30338       -18.15199        -6.37142
   N       -6.86487       -19.44353        -6.73709
   O       -7.45862       -20.02227        -7.62828
   O       -5.92348       -19.90186        -6.11823
   C       -8.32353       -17.41974        -6.94430
   C       -9.01684       -17.74286        -8.15697
   C       -9.21462       -16.84462        -9.15396
   C       -8.66231       -15.52801        -9.07606
   C       -9.11925       -14.32250        -9.49606
   C       -8.52474       -13.13200        -8.80444
   O       -7.52372       -13.13538        -8.12391
   C       -9.48929       -12.04356        -8.99609
   C       -9.48568       -10.79274        -8.44420
   C      -10.60126        -9.95206        -8.64720
   C      -11.69355       -10.41854        -9.43575
   C      -12.82015        -9.59013        -9.60193
   C      -12.86336        -8.36174        -9.00456
   C      -11.78438        -7.90456        -8.22041
   C      -10.67253        -8.68014        -8.04831
   F      -11.85964        -6.69819        -7.64672
   F      -13.93579        -7.57707        -9.15954
   C      -11.65174       -11.70228       -10.02494
   C      -10.56392       -12.50645        -9.80975
   C      -10.26710       -13.86529       -10.25687
   C      -10.87748       -14.49863       -11.30366
   C      -10.45223       -15.72907       -11.84287
   N      -10.12962       -16.71978       -12.32349
   C      -11.96299       -13.95594       -12.02613
   N      -12.85314       -13.57057       -12.63821
   H       -1.06621        -0.13048         0.00211
   H        1.64403        -2.99397        -3.00406
   H       -2.58491        -1.99018         0.44209
   H        0.12012        -4.91699        -2.55920
   H       -5.32957        -6.83726        -0.11149
   H       -4.09015        -9.70797        -4.45767
   H       -4.82166       -11.28400        -2.45183
   H       -4.09419        -8.27787         1.30084
   H       -4.44329        -9.94578         3.31989
   H       -6.64546       -12.98800         0.08017
   H       -7.06676       -10.62071        -1.82918
   H       -6.56338       -15.38354         1.03311
   H       -6.92200       -16.95568         1.80812
   H       -8.91995       -14.66914         1.41490
   H       -8.07863       -15.03037         2.91938
   H       -9.24456       -16.19377         2.26120
   H       -9.66600       -18.19074        -1.28231
   H       -8.08801       -18.57902        -1.95411
   H      -10.50172       -18.01158        -3.51294
   H       -9.03039       -18.36664        -4.13485
   H      -12.13598       -13.89528        -7.53679
   H      -10.99294       -16.28475        -7.45872
   H       -6.90075       -15.29547        -4.74780
   H       -5.73086       -17.66580        -4.87799
   H       -9.31262       -18.77412        -8.29577
   H       -9.78811       -17.13965       -10.01897
   H       -7.77493       -15.44113        -8.45293
   H       -8.66032       -10.46399        -7.83056
   H      -13.65689        -9.92535       -10.19452
   H       -9.85936        -8.32468        -7.43535
   H      -12.49733       -12.03006       -10.60820
*
