# ORCA input file
# SCF done       -184.672708084575          0.000846502006
! CAM-B3LYP def2-SVP def2/J RIJCOSX Grid4 TightSCF
%maxcore 5000
%tddft
    Mode sTDDFT
    Ethresh 5.0
    maxcore 5000
end

%pal
  nprocs 6
  end
* xyz 0 1
   C       -7.39979        -1.17841        -4.16719
   C       -6.42687        -2.12268        -4.07906
   C       -5.66887        -2.30178        -5.28101
   C       -6.01840        -1.41814        -6.35705
   O       -5.54847        -1.23245        -7.43686
   S       -7.44975        -0.42244        -5.71092
   C       -4.73086        -3.27839        -5.03647
   O       -4.82998        -3.70740        -3.74863
   C       -5.87560        -3.04587        -3.09640
   O       -6.14789        -3.27662        -1.95590
   C       -3.73777        -3.85182        -5.88043
   C       -3.85180        -4.21361        -7.21329
   N       -4.99656        -4.15836        -8.04811
   O       -6.07927        -3.96917        -7.52771
   O       -4.82161        -4.35485        -9.23230
   C       -2.64045        -4.86545        -7.62627
   C       -1.80794        -4.96393        -6.55572
   C       -2.42419        -4.32360        -5.43084
   C       -1.85762        -4.01206        -4.20534
   C       -2.13751        -2.83913        -3.45103
   C       -1.28308        -2.78209        -2.39003
   C       -0.48220        -3.96657        -2.36465
   N        0.53658        -4.10052        -1.40525
   O        1.34046        -5.01854        -1.50057
   O        0.58672        -3.25777        -0.52701
   C       -0.82371        -4.77282        -3.46367
   C       -0.51156        -6.10172        -3.78948
   C        0.06349        -7.02048        -2.94437
   C        0.44041        -8.31125        -3.33967
   N        0.96451        -9.24021        -2.47125
   C        1.20530        -9.05673        -1.05674
   C        2.45850        -8.22798        -0.78833
   C        1.31041       -10.43210        -3.11367
   O        1.77959       -11.40031        -2.55016
   C        0.96272       -10.20556        -4.50662
   C        0.42526        -8.91082        -4.61349
   C        0.10360        -8.67767        -6.00689
   O       -0.37008        -7.72122        -6.58315
   N        0.48265        -9.86729        -6.65795
   C        0.26918       -10.04094        -8.07599
   C       -0.97492       -10.87666        -8.36432
   C        0.99275       -10.78869        -5.78315
   C        1.46942       -12.06684        -6.16768
   C        1.95054       -12.95487        -5.26264
   C        2.45554       -14.27010        -5.54830
   C        2.58679       -14.78576        -6.84074
   C        3.07050       -16.06386        -7.04382
   N        3.27689       -16.48909        -8.40845
   O        2.66669       -15.89713        -9.27099
   O        4.06754       -17.38598        -8.60465
   C        3.42881       -16.90368        -5.97425
   C        3.32106       -16.36635        -4.68505
   C        2.85443       -15.08929        -4.47739
   C        3.81845       -18.28095        -6.17742
   C        4.78611       -18.89499        -5.46673
   C        5.14750       -20.26000        -5.65272
   C        4.56651       -21.23993        -6.42050
   C        5.23315       -22.51318        -6.37424
   C        6.40211       -22.56959        -5.52832
   O        7.16356       -23.44983        -5.27295
   S        6.55890       -20.88353        -4.81223
   C        4.53359       -23.35896        -7.17497
   O        3.47541       -22.75006        -7.72465
   C        3.42266       -21.41772        -7.29514
   O        2.54089       -20.67974        -7.64148
   H       -8.09562        -0.88293        -3.40468
   H       -2.46837        -5.21598        -8.62572
   H       -0.81388        -5.36266        -6.57731
   H       -2.81607        -2.06438        -3.75024
   H       -1.18556        -1.98815        -1.67339
   H       -0.80187        -6.43705        -4.77506
   H        0.25655        -6.75270        -1.91916
   H        1.33280       -10.06166        -0.64443
   H        0.32738        -8.59704        -0.59603
   H        3.31913        -8.68858        -1.26725
   H        2.63942        -8.18806         0.28192
   H        2.35372        -7.21098        -1.15760
   H        1.15703       -10.49242        -8.52628
   H        0.13941        -9.03663        -8.48801
   H       -0.89402       -11.86775        -7.92368
   H       -1.10351       -10.98147        -9.43756
   H       -1.85572       -10.38735        -7.95638
   H        1.43408       -12.31042        -7.21898
   H        1.95713       -12.67382        -4.21726
   H        2.33705       -14.19922        -7.71153
   H        3.58173       -16.98821        -3.84284
   H        2.77895       -14.70119        -3.47265
   H        3.28938       -18.83825        -6.94013
   H        5.38122       -18.34493        -4.74982
   H        4.68880       -24.39318        -7.42287
*
