# ORCA input file
# SCF done       -244.657577879709          0.000703886250
! CAM-B3LYP def2-SVP def2/J RIJCOSX Grid4 TightSCF
%maxcore 5000
%tddft
    Mode sTDDFT
    Ethresh 5.0
    maxcore 5000
end

%pal
  nprocs 6
  end
* xyz 0 1
   C       -1.99733        -0.58936        -1.78439
   N       -2.01959         0.17633        -0.66553
   C       -1.32869        -0.10433         0.56853
   C       -2.06542        -1.15686         1.39269
   C       -2.88407         1.28458        -0.81811
   O       -3.05547         2.11983         0.05126
   C       -3.40849         1.13951        -2.15417
   C       -2.82796        -0.03283        -2.72190
   C       -3.35343        -0.18774        -4.06725
   O       -3.16070        -1.01937        -4.92298
   N       -4.23107         0.90469        -4.21720
   C       -4.93789         1.12866        -5.45734
   C       -4.34795         2.28305        -6.26246
   C       -4.27420         1.69845        -3.09766
   C       -5.09721         2.84399        -2.98918
   C       -5.10931         3.60696        -1.86007
   C       -5.86936         4.77309        -1.60498
   C       -6.33938         5.80349        -2.42831
   N       -6.26691         5.97136        -3.81742
   O       -5.92262         5.03595        -4.52761
   O       -6.55607         7.07228        -4.26019
   C       -6.85533         6.85869        -1.60468
   C       -6.69970         6.52217        -0.29596
   C       -6.11109         5.22109        -0.22502
   C       -5.94031         4.44939         0.91350
   C       -5.99967         3.02917         0.98734
   C       -6.01150         2.66554         2.29851
   C       -5.91575         3.83593         3.12365
   N       -5.86588         3.69209         4.51323
   O       -6.03857         4.66404         5.23908
   O       -5.67111         2.56785         4.95139
   C       -5.83710         4.96454         2.29864
   C       -5.48903         6.31609         2.51597
   C       -5.52662         7.02536         3.68070
   C       -5.16577         8.40363         3.78362
   C       -5.18622         9.19379         4.99691
   C       -5.52449         8.75440         6.29862
   O       -5.90308         7.47551         6.41646
   C       -5.88428         6.76680         7.64502
   C       -4.47313         6.56926         8.18195
   C       -5.47349         9.71270         7.31506
   C       -5.07566        11.04572         7.07221
   C       -4.71232        11.48683         5.77653
   C       -4.79363        10.53732         4.76530
   S       -4.41417        10.78612         3.07115
   C       -4.76472         9.16801         2.70793
   O       -4.33120        12.76803         5.70693
   C       -4.06921        13.41376         4.47457
   C       -3.81804        14.88078         4.78350
   C       -5.09851        11.85834         8.22548
   C       -5.49338        11.19392         9.35299
   S       -5.88913         9.52044         8.99895
   C       -5.64218        11.65657        10.69589
   C       -6.22382        12.81959        11.17953
   N       -6.73518        13.91681        10.47054
   O       -7.42032        14.71125        11.09320
   O       -6.47660        14.02920         9.28178
   C       -6.34858        12.72319        12.61225
   C       -5.87913        11.51741        13.01337
   C       -5.38487        10.81103        11.86464
   C       -4.59748         9.66982        11.87531
   C       -3.51058         9.39921        10.98945
   C       -2.78139         8.35827        11.48503
   C       -3.41551         7.87209        12.66873
   N       -2.94673         6.76290        13.38218
   O       -1.93663         6.21472        12.97151
   O       -3.55702         6.40155        14.38102
   C       -4.56026         8.63869        12.92183
   C       -5.56121         8.35785        13.86967
   C       -6.85345         8.79142        13.75336
   C       -7.94353         8.62326        14.62732
   N       -8.03523         8.04108        15.86862
   C       -6.98481         7.44730        16.66416
   C       -6.07717         8.50386        17.28758
   C       -9.34466         8.13067        16.39552
   O       -9.66421         7.69123        17.47670
   C      -10.09913         8.82471        15.37021
   C       -9.21975         9.10772        14.30993
   C       -9.95900         9.81432        13.29257
   O       -9.63634        10.27767        12.21993
   N      -11.27542         9.90204        13.81867
   C      -12.29999        10.56647        13.05047
   C      -13.06140         9.58513        12.16169
   C      -11.36802         9.30913        15.04822
   C      -12.49740         9.17924        15.92440
   C      -13.79404         9.38162        15.68028
   H       -1.38919        -1.47311        -1.84169
   H       -1.28397         0.83659         1.12307
   H       -0.31272        -0.43829         0.34048
   H       -3.06445        -0.80599         1.63910
   H       -1.52644        -1.34511         2.31664
   H       -2.14856        -2.08960         0.83911
   H       -5.99608         1.30849        -5.24823
   H       -4.84256         0.19650        -6.02165
   H       -4.48681         3.23300        -5.75313
   H       -4.84259         2.33717        -7.22799
   H       -3.28540         2.11972        -6.42602
   H       -5.73287         3.09031        -3.82283
   H       -4.48589         3.29066        -1.03296
   H       -7.29487         7.75367        -2.00279
   H       -7.07186         7.07650         0.54410
   H       -6.13496         2.37241         0.15123
   H       -6.09431         1.67305         2.69981
   H       -5.16479         6.82070         1.61629
   H       -5.86779         6.54318         4.58094
   H       -6.31330         5.80085         7.36919
   H       -6.52894         7.24891         8.38817
   H       -3.99870         7.51865         8.42004
   H       -3.87180         6.04967         7.44058
   H       -4.51385         5.96733         9.08443
   H       -4.66327         8.85474         1.68741
   H       -4.93078        13.30917         3.80353
   H       -3.18874        12.96837         3.99322
   H       -3.62608        15.42255         3.86265
   H       -2.96063        14.98128         5.44256
   H       -4.68577        15.30812         5.27762
   H       -4.81489        12.89286         8.20699
   H       -6.75036        13.51037        13.22049
   H       -5.78286        11.17432        14.02439
   H       -3.24478        10.01021        10.14810
   H       -1.87522         7.94583        11.08334
   H       -5.26612         7.68866        14.66392
   H       -7.13244         9.32978        12.85577
   H       -6.41392         6.73895        16.06017
   H       -7.49406         6.89355        17.45840
   H       -5.61347         9.12535        16.52529
   H       -5.29395         8.01640        17.86033
   H       -6.65186         9.14236        17.95444
   H      -11.78277        11.29301        12.41623
   H      -12.96795        11.10248        13.72732
   H      -12.38198         9.14891        11.43390
   H      -13.85196        10.10624        11.62913
   H      -13.49977         8.78018        12.74753
   H      -12.19954         8.83142        16.90636
   H      -14.19072         9.67596        14.72601
   H      -14.51813         9.22711        16.46187
*
