# ORCA input file
# SCF done       -251.304544410141          0.000459095165
! CAM-B3LYP def2-SVP def2/J RIJCOSX Grid4 TightSCF
%maxcore 5000
%tddft
    Mode sTDDFT
    Ethresh 5.0
    maxcore 5000
end

%pal
  nprocs 6
  end
* xyz 0 1
   C       -1.71286         2.78715         2.84873
   C       -0.90133         3.31816         1.85733
   C       -0.91224         2.72106         0.59661
   C       -0.09107         3.24834        -0.43177
   N        0.57268         3.67790        -1.25931
   C       -1.72421         1.60186         0.32348
   C       -1.70585         1.01251        -0.96396
   N       -1.70332         0.51998        -1.99758
   C       -2.54567         1.07505         1.31974
   C       -2.52887         1.67426         2.56280
   C       -3.31261         1.30625         3.75781
   O       -4.13105         0.42060         3.84535
   C       -2.91201         2.28775         4.80890
   C       -1.89990         3.17420         4.24429
   C       -1.20576         4.14149         4.90966
   C       -0.21611         4.95886         4.31631
   N        0.59339         5.64684         3.88518
   C       -1.35033         4.43789         6.28506
   N       -1.39387         4.71717         7.39628
   C       -3.47223         2.34321         6.03139
   C       -4.43618         1.36468         6.51047
   C       -4.16694        -0.00124         6.57129
   C       -2.93792        -0.73647         6.18463
   O       -1.89096        -0.28897         5.78451
   N       -3.23333        -2.08222         6.38554
   C       -4.53012        -2.27577         6.89280
   O       -5.01187        -3.34627         7.14415
   C       -5.11520        -0.92237         7.02379
   C       -6.36919        -0.53976         7.46706
   C       -6.64177         0.82318         7.42935
   C       -5.70719         1.74652         6.95665
   C       -6.18253         3.13649         6.90176
   O       -5.58943         4.08410         6.47121
   S       -7.84205         3.20548         7.56949
   C       -7.92182         1.42232         7.84971
   O       -8.87766         0.87262         8.30245
   C       -2.42734        -3.18045         6.09850
   C       -1.14204        -3.12315         5.73224
   C       -0.31381        -4.26221         5.39996
   C        1.04751        -4.07162         5.27514
   C        1.88528        -5.14301         4.92015
   C        3.26501        -5.20385         4.73023
   C        4.24315        -4.11122         4.96631
   C        5.21770        -4.48762         6.10198
   N        6.08302        -3.36085         6.41585
   C        5.00098        -3.72315         3.67680
   N        5.39071        -2.33497         3.76991
   C        3.56463        -6.55021         4.29904
   C        4.71615        -7.12654         3.90500
   C        4.76688        -8.55676         3.48630
   C        3.46954        -9.28579         3.57584
   C        2.31829        -8.68264         3.93396
   C        2.31178        -7.31400         4.28589
   C        1.29669        -6.44499         4.66166
   C       -0.09470        -6.61864         4.80706
   C       -0.86876        -5.55905         5.16989
   C        5.88000        -9.17721         4.29380
   C        5.68662        -9.99998         5.31579
   C        6.77319       -10.55974         6.10913
   C        6.83481       -11.93571         6.33198
   C        5.91491       -12.98269         5.86909
   O        4.90640       -12.90071         5.21589
   N        6.45272       -14.19807         6.34430
   C        7.65119       -14.00427         7.05961
   O        8.33282       -14.87274         7.53449
   C        7.87351       -12.54488         7.05123
   C        8.89899       -11.80271         7.60542
   C        8.83186       -10.42594         7.42376
   C        7.80364        -9.80485         6.69643
   C        7.88421        -8.33616         6.69393
   O        7.13541        -7.53664         6.20300
   S        9.34282        -7.82387         7.60926
   C        9.83071        -9.51110         7.99616
   O       10.81010        -9.78711         8.62045
   C        5.79055       -15.38534         6.13834
   C        6.17494       -16.58317         6.61761
   C        5.41362       -17.75981         6.39626
   C        5.58104       -18.94916         7.03330
   C        5.00626       -20.19759         6.46950
   O        4.16952       -20.29344         5.60469
   C        5.72929       -21.29446         7.15735
   C        5.65738       -22.65051         6.91870
   C        6.47184       -23.49629         7.67349
   C        7.34189       -22.96113         8.64316
   C        7.39893       -21.58738         8.88525
   C        6.58256       -20.75328         8.14048
   C        6.39039       -19.30255         8.18303
   C        6.71376       -18.49130         9.23607
   C        6.24073       -17.16869         9.39152
   N        5.82685       -16.11908         9.59872
   C        7.45401       -18.92481        10.35816
   N        8.06061       -19.23466        11.28086
   C        8.17770       -23.83410         9.38353
   N        8.85848       -24.53266         9.98248
   C        6.42872       -24.89511         7.45826
   N        6.37932       -26.02337         7.26908
   H       -0.26822         4.17446         2.02731
   H       -3.17782         0.22163         1.12630
   H       -3.24142         3.15038         6.71408
   H       -7.10092        -1.25230         7.81304
   H       -2.97092        -4.10671         6.22636
   H       -0.65473        -2.16107         5.67313
   H        1.46973        -3.09150         5.44210
   H        3.69918        -3.21407         5.27749
   H        5.85047        -5.32138         5.79304
   H        4.62177        -4.82863         6.96541
   H        6.82993        -3.65659         7.03434
   H        5.55570        -2.63423         6.89041
   H        4.33162        -3.83451         2.81675
   H        5.85220        -4.40731         3.53892
   H        6.01664        -2.22292         4.56255
   H        5.85440        -2.02182         2.92571
   H        5.65352        -6.59260         3.89384
   H        5.09099        -8.57839         2.43240
   H        3.49634       -10.33294         3.31604
   H        1.39159        -9.23653         3.96184
   H       -0.53589        -7.58637         4.62087
   H       -1.93483        -5.68960         5.26337
   H        6.87738        -8.86439         4.01859
   H        4.69608       -10.35878         5.55860
   H        9.70566       -12.25406         8.16071
   H        4.87065       -15.25773         5.57896
   H        7.08926       -16.65921         7.18505
   H        4.67170       -17.74352         5.60550
   H        4.99079       -23.04614         6.16742
   H        8.08011       -21.21013         9.63174
*
