# ORCA input file
# SCF done       -208.623260239971          0.000318139585
! CAM-B3LYP def2-SVP def2/J RIJCOSX Grid4 TightSCF
%maxcore 5000
%tddft
    Mode sTDDFT
    Ethresh 5.0
    maxcore 5000
end

%pal
  nprocs 6
  end
* xyz 0 1
   C       11.59603        -5.15488        -6.74744
   O       11.33215        -3.87500        -6.46023
   C       12.36149        -3.10835        -6.88849
   C       13.31025        -3.93271        -7.46482
   C       12.80940        -5.25104        -7.36895
   F       13.39770        -6.36567        -7.79333
   F       14.47488        -3.56361        -7.98852
   C       12.30558        -1.69277        -6.67963
   C       13.19196        -0.82216        -7.18673
   C       13.12398         0.60839        -6.97461
   C       12.83203         1.19986        -5.73853
   C       12.63668         0.59227        -4.40329
   O       12.67232        -0.56189        -4.05528
   N       12.40886         1.66005        -3.52185
   C       12.46383         2.89824        -4.16089
   O       12.30072         3.97470        -3.64826
   C       12.76747         2.59042        -5.57907
   C       12.99448         3.47080        -6.61852
   C       13.30928         2.89886        -7.84557
   C       13.37423         1.51527        -8.02554
   C       13.68249         1.10671        -9.40501
   O       13.75120         0.00253        -9.85842
   S       13.94082         2.58045       -10.41024
   C       13.59766         3.69862        -9.05003
   O       13.61035         4.88879        -9.14932
   C       12.16639         1.41074        -2.17357
   C       11.82929         2.32077        -1.25437
   C       11.55322         1.98771         0.12929
   C       11.97758         0.80773         0.69945
   C       11.61840         0.49844         2.02294
   C       11.87789        -0.62973         2.79574
   C       12.70140        -1.82978         2.47320
   C       12.31322        -2.51603         1.13897
   N       12.98030        -1.95740        -0.02745
   C       14.19766        -1.45503         2.54623
   N       15.00515        -2.65613         2.65406
   C       11.23030        -0.41618         4.07001
   C       11.16149        -1.18629         5.17260
   C       10.39161        -0.76506         6.37049
   C        9.76783         0.59268         6.27094
   C        9.86351         1.35891         5.16645
   C       10.57219         0.89500         4.03618
   C       10.81705         1.44178         2.78517
   C       10.43920         2.66518         2.19325
   C       10.80417         2.92412         0.90734
   C       11.20383        -0.84771         7.63717
   C       12.52985        -0.77615         7.66464
   C       13.31896        -0.80589         8.88748
   C       14.32556         0.13991         9.09044
   C       14.77237         1.22813         8.20173
   O       14.39751         1.52377         7.09439
   N       15.78167         1.90505         8.90525
   C       16.02623         1.33748        10.16220
   O       16.83612         1.71610        10.96651
   C       15.08191         0.20155        10.26709
   C       14.89067        -0.69320        11.30140
   C       13.92358        -1.67125        11.09605
   C       13.15376        -1.74100         9.92652
   C       12.26239        -2.91161         9.87494
   O       11.54990        -3.28014         8.98562
   S       12.40738        -3.83114        11.41636
   C       13.64829        -2.72148        12.08927
   O       14.14211        -2.85784        13.16840
   C       16.41165         3.00952         8.34866
   C       17.37708         3.73189         8.93210
   C       17.97536         4.86718         8.29979
   O       17.59999         5.27731         7.06651
   C       18.32457         6.36722         6.72438
   C       19.18802         6.66875         7.75934
   C       18.96606         5.71117         8.76619
   F       19.58155         5.62223         9.94414
   F       20.05903         7.67802         7.78359
   C       18.14378         7.02775         5.46017
   C       17.27361         6.63756         4.53232
   H       10.87456        -5.89871        -6.47652
   H       11.46082        -1.36172        -6.09396
   H       13.97491        -1.16726        -7.84632
   H       12.94381         4.54012        -6.49090
   H       12.25926         0.35791        -1.94372
   H       11.70750         3.35528        -1.53858
   H       12.57243         0.09477         0.15149
   H       12.53456        -2.57195         3.25936
   H       11.23684        -2.38866         0.99704
   H       12.50949        -3.59354         1.25136
   H       13.94765        -2.25810        -0.07288
   H       12.52492        -2.27127        -0.87694
   H       14.35643        -0.87140         3.45765
   H       14.44688        -0.81278         1.68933
   H       15.96758        -2.42506         2.86927
   H       14.99613        -3.18308         1.78816
   H       11.64564        -2.15091         5.23617
   H        9.57649        -1.49906         6.49127
   H        9.23444         0.93518         7.14434
   H        9.39933         2.33367         5.13253
   H        9.86347         3.38065         2.76150
   H       10.51585         3.85437         0.43972
   H       10.63361        -0.92388         8.55168
   H       13.08855        -0.60357         6.75460
   H       15.46260        -0.65441        12.21457
   H       16.03506         3.24801         7.36282
   H       17.75155         3.49300         9.91501
   H       18.78269         7.88689         5.31363
   H       16.64038         5.78082         4.68549
   H       17.17367         7.16387         3.60045
*
