# ORCA input file
# SCF done       -210.962927031256          0.000325045307
! CAM-B3LYP def2-SVP def2/J RIJCOSX Grid4 TightSCF
%maxcore 5000
%tddft
    Mode sTDDFT
    Ethresh 5.0
    maxcore 5000
end

%pal
  nprocs 6
  end
* xyz 0 1
   C        3.98877         6.11404        -1.95835
   C        3.62478         6.72602        -0.61250
   O        3.72832         7.86804        -0.28331
   O        3.14300         5.76735         0.19918
   C        3.23286         4.48380        -0.40643
   C        3.26142         4.77259        -1.91928
   C        3.85281         3.65222        -2.76581
   C        5.20330         3.17897        -2.24558
   C        5.14568         2.74838        -0.78680
   C        4.47792         3.75861         0.15985
   O        4.08107         2.98331         1.28428
   C        3.92581         1.68684         0.95734
   O        3.51744         0.86861         1.72373
   C        4.34867         1.46907        -0.49643
   C        5.13287         0.20375        -0.69346
   C        6.11553        -0.14891         0.23005
   C        6.81881        -1.31703         0.04855
   C        6.57274        -2.13169        -1.06686
   C        5.61452        -1.77198        -1.99969
   C        4.89742        -0.60480        -1.79928
   C        7.41689        -3.30652        -0.97090
   C        8.17835        -3.21570         0.20624
   C        7.91683        -1.90233         0.90947
   C        7.47072        -2.09618         2.36600
   C        6.18964        -2.91443         2.47649
   C        9.12918        -0.94538         0.80994
   C       10.44401        -1.48922         1.35277
   C        8.97968        -4.26145         0.59928
   C        9.08227        -5.39970        -0.21467
   C        8.33593        -5.46260        -1.39795
   C        7.49932        -4.43276        -1.77569
   C        9.89906        -6.52192         0.18272
   S        9.40008        -8.12639        -0.22652
   C       10.71768        -8.86638         0.62285
   C       11.53975        -7.88583         1.18670
   C       11.08111        -6.55450         0.92235
   C       11.86804        -5.46437         1.35053
   C       13.00926        -5.68680         2.06536
   S       14.03003        -4.33858         2.62206
   C       13.43786        -7.00788         2.38397
   O       14.56112        -7.23488         3.10740
   C       12.71728        -8.08108         1.93257
   C       10.86708       -10.27488         0.69362
   C       10.09345       -11.15836         0.02775
   C       10.19752       -12.59525         0.06990
   C        9.50801       -13.34467        -0.89751
   C        9.59478       -14.71431        -0.89139
   C       10.34968       -15.37757         0.09025
   C       11.02696       -14.65177         1.05867
   C       10.95015       -13.27395         1.03824
   C       10.25418       -16.80524        -0.14257
   C        9.45105       -17.01822        -1.27365
   C        8.97006       -15.70626        -1.84505
   C        9.48786       -15.50122        -3.28149
   C       11.00507       -15.59792        -3.38378
   C        7.43293       -15.61719        -1.83388
   C        6.84222       -15.75704        -0.43584
   C        9.20288       -18.29324        -1.72885
   C        9.74917       -19.38107        -1.04874
   C       10.55835       -19.16023         0.06310
   C       10.81357       -17.88142         0.52712
   C        9.50016       -20.79731        -1.50684
   C        9.15620       -20.83995        -2.99412
   O        9.89289       -20.61977        -3.90772
   O        7.86674       -21.17732        -3.16568
   C        7.18566       -21.34794        -1.93011
   C        8.29984       -21.53916        -0.88222
   C        7.89627       -21.18797         0.54640
   C        7.13626       -19.87389         0.66746
   C        5.92403       -19.80339        -0.25049
   C        6.21885       -20.15992        -1.71733
   O        4.95008       -20.51088        -2.25938
   C        4.10443       -20.91883        -1.29641
   O        3.01042       -21.33803        -1.52395
   C        4.76653       -20.74807         0.06379
   H        5.07290         5.99932        -2.00315
   H        3.67823         6.76501        -2.77235
   H        2.34375         3.92261        -0.10262
   H        2.22668         4.93958        -2.23944
   H        3.95992         4.00495        -3.79270
   H        3.14939         2.81768        -2.78091
   H        5.94006         3.97789        -2.34795
   H        5.55260         2.33495        -2.84300
   H        6.17064         2.58418        -0.43322
   H        5.17684         4.51766         0.52541
   H        3.43472         1.43355        -1.09803
   H        6.29388         0.47721         1.09229
   H        5.41907        -2.39268        -2.86094
   H        4.13413        -0.32168        -2.51044
   H        7.31190        -1.11628         2.82069
   H        8.26562        -2.59798         2.92033
   H        5.36494        -2.40357         1.98531
   H        5.92826        -3.05862         3.52206
   H        6.31642        -3.89109         2.01387
   H        8.87259        -0.02810         1.34433
   H        9.27046        -0.68662        -0.24315
   H       10.34389        -1.81202         2.38593
   H       11.20348        -0.71054         1.31218
   H       10.78327        -2.32569         0.74663
   H        9.48004        -4.24596         1.55426
   H        8.41715        -6.34536        -2.01568
   H        6.91265        -4.50947        -2.67874
   H       11.58054        -4.46017         1.08269
   H       13.27309        -3.37690         2.10581
   H       14.98202        -6.40035         3.35041
   H       13.07797        -9.07121         2.15578
   H       11.67563       -10.62136         1.32080
   H        9.32609       -10.76524        -0.62934
   H        8.92460       -12.82947        -1.64750
   H       11.60682       -15.15471         1.81845
   H       11.46904       -12.70884         1.79709
   H        9.16229       -14.51899        -3.63077
   H        9.03464       -16.25448        -3.92915
   H       11.48207       -14.85725        -2.74533
   H       11.32051       -15.42380        -4.40969
   H       11.34819       -16.58520        -3.08314
   H        7.03223       -16.40063        -2.48122
   H        7.13466       -14.65528        -2.25531
   H        7.14251       -16.69953         0.01772
   H        5.75583       -15.72380        -0.48191
   H        7.18383       -14.94833         0.20606
   H        8.61152       -18.44757        -2.61920
   H       11.00237       -20.00584         0.56880
   H       11.44545       -17.72973         1.38908
   H       10.42163       -21.36435        -1.34839
   H        6.57308       -22.25122        -2.03079
   H        8.55953       -22.60464        -0.89543
   H        8.79346       -21.13978         1.16471
   H        7.27892       -22.00127         0.93447
   H        7.80229       -19.04465         0.42963
   H        6.80374       -19.74578         1.69928
   H        5.53880       -18.77760        -0.23437
   H        6.58450       -19.30438        -2.28975
   H        5.10846       -21.72613         0.40622
   H        4.05763       -20.35779         0.79044
*
