# ORCA input file
# SCF done       -204.382849321762          0.002359400879
! CAM-B3LYP def2-SVP def2/J RIJCOSX Grid4 TightSCF
%maxcore 5000
%tddft
    Mode sTDDFT
    Ethresh 5.0
    maxcore 5000
end

%pal
  nprocs 6
  end
* xyz 0 1
   C       -5.99456        -0.85178         6.80547
   C       -5.08069         0.19004         6.75922
   C       -4.55738         0.63212         5.55165
   C       -4.93743         0.04794         4.35324
   C       -5.84983        -0.99439         4.38617
   C       -6.37989        -1.45062         5.61561
   C       -7.29934        -2.54896         5.35738
   C       -8.12285        -3.14615         6.26701
   C       -8.18770        -2.78431         7.63175
   N       -8.28741        -2.53990         8.74809
   C       -9.05231        -4.17042         5.97642
   N       -9.83161        -4.99610         5.81019
   C       -7.17001        -2.87504         3.93220
   C       -6.45587        -1.75901         3.31090
   C       -6.53444        -1.38232         1.99923
   C       -7.39353        -1.98964         1.05758
   N       -8.11183        -2.42728         0.27697
   C       -5.81254        -0.30460         1.44355
   N       -5.21785         0.53000         0.92831
   C       -7.53125        -4.06165         3.38261
   C       -7.15509        -4.59635         2.09930
   C       -7.99047        -5.41167         1.40796
   C       -7.73056        -5.92046         0.10220
   C       -8.63191        -6.79503        -0.49728
   C       -8.38257        -7.34206        -1.76536
   N       -8.14939        -7.79430        -2.79621
   C       -9.80812        -7.22233         0.13765
   N      -10.76965        -7.57746         0.65673
   C       -6.56899        -5.50597        -0.61301
   C       -5.53792        -4.78055        -0.11814
   S       -5.52473        -4.23747         1.55066
   C       -4.36359        -4.41028        -0.89122
   C       -3.98761        -5.15452        -1.98737
   C       -2.84234        -4.80350        -2.72649
   C       -2.25934        -5.37211        -3.85456
   C       -2.73922        -6.44304        -4.76719
   C       -3.41005        -7.63882        -4.07235
   N       -3.17797        -8.83650        -4.86213
   C       -3.69032        -5.82122        -5.82575
   N       -3.01794        -4.76980        -6.56530
   C       -1.09591        -4.57128        -4.16098
   C       -0.18462        -4.69391        -5.14425
   C        0.84483        -3.63974        -5.36456
   C        0.93590        -2.61241        -4.27919
   C        0.05259        -2.54772        -3.26476
   C       -1.00061        -3.48917        -3.17671
   C       -2.05963        -3.64736        -2.30223
   C       -2.47129        -2.90222        -1.17609
   C       -3.58532        -3.27581        -0.49695
   C        0.36684        -2.96269        -6.62617
   C        1.05927        -2.87085        -7.75848
   C        0.50298        -2.25972        -8.95239
   C       -0.80211        -2.35419        -9.28682
   C       -1.41289        -1.75420       -10.43004
   C       -2.75335        -2.00313       -10.70212
   C       -3.42121        -1.43806       -11.80088
   N       -3.96968        -0.98249       -12.70116
   C       -3.51475        -2.85172        -9.88629
   N       -4.12366        -3.54974        -9.20449
   C       -0.66318        -0.86852       -11.25690
   C        0.64794        -0.55951       -11.08570
   S        1.67202        -1.39908        -9.92733
   C        1.29337         0.42739       -11.91103
   C        2.28268         1.28913       -11.56060
   C        3.10933         2.03161       -12.51814
   C        2.81838         2.29723       -13.82560
   C        1.62660         1.92947       -14.48911
   N        0.68385         1.66869       -15.08881
   C        3.66583         3.02593       -14.69028
   N        4.30551         3.61014       -15.44224
   C        4.30469         2.44871       -11.80003
   C        4.14678         2.14306       -10.42832
   C        5.15293         2.43015        -9.52024
   C        6.31535         3.02499        -9.98688
   C        6.46956         3.33262       -11.33151
   C        5.47011         3.04929       -12.25052
   C        2.82675         1.56936       -10.23202
   C        2.14466         1.52341        -9.04710
   C        2.71979         1.81699        -7.79221
   N        3.13220         2.00735        -6.73801
   C        0.76710         1.24350        -8.92729
   N       -0.35601         1.05813        -8.77698
   H       -6.38648        -1.18449         7.75234
   H       -4.77153         0.66165         7.67925
   H       -3.84405         1.44181         5.54308
   H       -4.52045         0.39503         3.42181
   H       -8.13995        -4.72968         3.97814
   H       -8.95580        -5.63636         1.84415
   H       -6.53267        -5.78723        -1.65631
   H       -4.54754        -6.03029        -2.26907
   H       -1.87679        -6.84212        -5.30827
   H       -4.48093        -7.43141        -3.91509
   H       -2.94099        -7.79851        -3.09753
   H       -3.65264        -8.76769        -5.75601
   H       -3.54639        -9.65117        -4.38446
   H       -4.60013        -5.47678        -5.30896
   H       -3.97272        -6.60106        -6.53586
   H       -2.98564        -3.92009        -6.01079
   H       -3.52156        -4.55974        -7.42312
   H       -0.22284        -5.49487        -5.86718
   H        1.82738        -4.08709        -5.55136
   H        1.73158        -1.89071        -4.37893
   H        0.13787        -1.78117        -2.50880
   H       -1.90167        -2.03876        -0.86795
   H       -3.91236        -2.69784         0.35513
   H       -0.62741        -2.54568        -6.55778
   H        2.08292        -3.21543        -7.82342
   H       -1.43943        -2.94594        -8.64362
   H       -1.20382        -0.34221       -12.03378
   H        0.95333         0.43786       -12.93819
   H        5.04657         2.18950        -8.47501
   H        7.10996         3.25043        -9.29243
   H        7.38187         3.79776       -11.67155
   H        5.61008         3.29066       -13.29116
*
