# ORCA input file
# SCF done       -225.440797816176          0.000762176435
! CAM-B3LYP def2-SVP def2/J RIJCOSX Grid4 TightSCF
%maxcore 5000
%tddft
    Mode sTDDFT
    Ethresh 5.0
    maxcore 5000
end

%pal
  nprocs 6
  end
* xyz 0 1
   C       -3.22514         5.97762         5.37208
   C       -3.58622         6.51312         6.59853
   C       -4.86035         6.32203         7.11758
   C       -5.81355         5.59744         6.41976
   C       -5.46772         5.06156         5.18870
   C       -4.16600         5.24462         4.66373
   C       -4.06147         4.54744         3.39342
   C       -3.01011         4.57982         2.52686
   C       -1.84334         5.35177         2.73516
   N       -0.87639         5.95878         2.84225
   C       -2.92439         3.87485         1.30303
   N       -2.76024         3.32251         0.31128
   C       -5.30921         3.78509         3.23658
   C       -6.25212         4.29945         4.23627
   C       -7.61351         4.21722         4.19127
   C       -8.35276         3.69294         3.11157
   N       -9.01025         3.32244         2.24658
   C       -8.46615         4.72888         5.19631
   N       -9.20831         5.10514         5.98511
   C       -5.43891         2.70523         2.44515
   C       -6.52045         1.73627         2.39486
   C       -7.10727         1.43262         1.16600
   C       -6.87886         2.10357        -0.13858
   O       -6.13751         3.02326        -0.36669
   N       -7.72756         1.46106        -1.03743
   C       -8.50145         0.46583        -0.42250
   O       -9.29360        -0.23857        -0.98344
   C       -8.10915         0.48109         1.01270
   C       -8.58698        -0.24821         2.08648
   C       -8.00532         0.03191         3.31792
   C       -7.00291         0.99030         3.48387
   C       -6.50813         1.10696         4.87009
   O       -5.64907         1.82923         5.28879
   S       -7.40989        -0.02828         5.91985
   C       -8.40319        -0.66517         4.55884
   O       -9.22853        -1.51291         4.68809
   C       -7.86066         1.70966        -2.40120
   C       -7.14335         2.61232        -3.08615
   C       -7.23773         2.83794        -4.49430
   S       -6.32779         4.14063        -5.16672
   C       -6.90608         3.79067        -6.75057
   C       -7.77852         2.70322        -6.76114
   C       -7.96141         2.15163        -5.46669
   O       -8.78557         1.14944        -5.06087
   C       -9.08311         0.06695        -5.91736
   C       -9.73001         0.47366        -7.23687
   C       -8.69712         1.01456        -8.21769
   O       -8.29953         2.34528        -7.95980
   C       -6.58009         4.57478        -7.91206
   C       -7.58713         4.97017        -8.80757
   C       -9.05684         4.88511        -8.67082
   O       -9.74530         4.59216        -7.73520
   N       -9.57526         5.32745        -9.91205
   C       -8.57198         5.79514       -10.76511
   O       -8.73134         6.25797       -11.86238
   C       -7.30548         5.60653       -10.01645
   C       -6.02270         5.97691       -10.37507
   C       -5.02247         5.65291        -9.46655
   C       -5.27198         4.95108        -8.28768
   C       -4.04733         4.56423        -7.56222
   O       -3.93447         3.84334        -6.61830
   S       -2.61772         5.30229        -8.37936
   C       -3.60113         5.99047        -9.70549
   O       -3.15074         6.61162       -10.61889
   C      -10.91878         5.21048       -10.19709
   C      -11.44546         5.33431       -11.42846
   C      -12.82716         5.13898       -11.70049
   C      -13.33124         4.88945       -12.94082
   C      -14.72724         5.04373       -13.34435
   C      -15.82217         5.05552       -12.52664
   C      -15.78294         4.85799       -11.12921
   N      -15.81683         4.69229        -9.99411
   C      -17.14883         5.21705       -12.98207
   N      -18.24724         5.34230       -13.28872
   C      -14.72768         5.17299       -14.79483
   C      -13.41981         4.93496       -15.27854
   C      -13.14350         5.01379       -16.63376
   C      -14.17712         5.32910       -17.50270
   C      -15.46300         5.55437       -17.03104
   C      -15.75256         5.47871       -15.67695
   C      -12.56643         4.59850       -14.15030
   C      -11.37717         3.92423       -14.21389
   C      -10.70721         3.63198       -15.42241
   N      -10.11709         3.37464       -16.37185
   C      -10.73937         3.31608       -13.11078
   N      -10.20415         2.74285       -12.27211
   H       -2.22873         6.12648         4.98969
   H       -2.86119         7.08188         7.16026
   H       -5.11324         6.74059         8.07954
   H       -6.79492         5.44607         6.83860
   H       -4.64430         2.49101         1.74112
   H       -9.36780        -0.98539         1.98953
   H       -8.60720         1.08271        -2.86431
   H       -6.41989         3.23007        -2.57433
   H       -8.17057        -0.51632        -6.11372
   H       -9.76973        -0.54508        -5.32749
   H      -10.48937         1.23627        -7.05254
   H      -10.21049        -0.39918        -7.67845
   H       -7.81299         0.35909        -8.22989
   H       -9.11249         1.06387        -9.22740
   H       -5.80179         6.48610       -11.29922
   H      -11.50968         4.91488        -9.33887
   H      -10.79818         5.59555       -12.25271
   H      -13.51015         5.25836       -10.87119
   H      -12.14736         4.84813       -17.01080
   H      -13.97564         5.40100       -18.56045
   H      -16.25183         5.79636       -17.72661
   H      -16.75538         5.66223       -15.32771
*
