# ORCA input file
# SCF done       -216.052916656219          0.000971909879
! CAM-B3LYP def2-SVP def2/J RIJCOSX Grid4 TightSCF
%maxcore 5000
%tddft
    Mode sTDDFT
    Ethresh 5.0
    maxcore 5000
end

%pal
  nprocs 6
  end
* xyz 0 1
   C       -1.80343         1.10655         3.39215
   C       -2.20264         1.44706         2.12695
   C       -3.34466         0.91782         1.49400
   N       -4.28037         0.54512         0.94254
   C       -1.48342         2.31864         1.28306
   N       -0.91934         2.96818         0.52305
   C       -2.34889         0.00828         4.18212
   C       -1.39602        -0.34737         5.18129
   C       -1.61711        -1.37830         6.04801
   C       -2.82599        -2.10508         5.96123
   C       -3.78969        -1.74357         4.97588
   C       -3.53066        -0.67627         4.08574
   C       -4.99465        -2.47200         4.90547
   C       -5.23660        -3.50998         5.76330
   C       -4.28644        -3.86640         6.73195
   C       -3.10698        -3.17925         6.82839
   C       -0.23879         0.56282         5.09729
   O        0.78271         0.53260         5.74445
   C       -0.61858         1.58535         4.07984
   C        0.06100         2.75683         4.02720
   C       -0.32202         3.99822         3.41096
   C       -1.67145         4.35384         3.25482
   C       -1.99040         5.54235         2.65016
   C       -0.98028         6.40504         2.19615
   C        0.35795         6.08183         2.37675
   C        0.67555         4.89045         2.99352
   C       -1.60916         7.55637         1.59093
   C       -3.00717         7.39312         1.63727
   C       -3.36718         6.09541         2.33346
   C       -4.08987         5.05727         1.43983
   C       -5.08486         5.59795         0.42139
   C       -4.08564         6.34486         3.67910
   C       -5.53621         6.80222         3.61036
   C       -3.82413         8.37796         1.12943
   C       -3.25672         9.53701         0.58060
   C       -1.86624         9.68476         0.55117
   C       -1.03988         8.69863         1.04578
   C       -4.10377        10.59975         0.07857
   S       -3.53871        12.23315         0.06725
   C       -5.03656        12.83985        -0.57601
   C       -5.92495        11.79842        -0.78724
   C       -5.38944        10.53182        -0.41629
   O       -6.06996         9.34190        -0.58238
   C       -5.67857         8.62550        -1.73822
   O       -7.16525        12.03960        -1.28439
   C       -8.18275        11.07704        -1.09472
   C       -5.19019        14.25653        -0.80768
   C       -4.25408        15.14412        -0.25446
   C       -4.38046        16.49510        -0.46307
   C       -5.47588        16.99225        -1.19268
   C       -6.40493        16.12396        -1.74983
   C       -6.25266        14.76568        -1.56613
   C       -5.41242        18.43284        -1.19637
   C       -4.27210        18.83543        -0.47242
   C       -3.51684        17.62946         0.05180
   C       -3.50958        17.55798         1.59345
   C       -2.72701        18.64723         2.31571
   C       -2.10969        17.63763        -0.58151
   C       -1.21094        16.45914        -0.23011
   C       -3.96294        20.16597        -0.37444
   C       -4.81690        21.14163        -0.94053
   C       -5.96349        20.71708        -1.63312
   C       -6.25274        19.37728        -1.77329
   C       -4.42140        22.50026        -0.73383
   C       -4.93671        23.72446        -1.05427
   C       -4.28000        24.96500        -0.64708
   C       -3.19317        25.10448         0.17862
   C       -2.62495        26.34730         0.53219
   N       -2.10128        27.31431         0.86314
   C       -2.47386        24.07943         0.82958
   N       -1.82395        23.33522         1.41758
   C       -5.01050        26.08052        -1.23642
   C       -6.12755        25.55979        -1.94398
   C       -6.13766        24.08971        -1.84656
   O       -6.98206        23.36943        -2.33934
   C       -7.01535        26.36617        -2.59533
   C       -6.81959        27.76473        -2.57169
   C       -5.69835        28.29656        -1.87237
   C       -4.79803        27.43426        -1.20605
   C       -5.50882        29.69367        -1.85685
   C       -6.38449        30.52626        -2.49854
   C       -7.48917        30.00114        -3.18572
   C       -7.70186        28.64982        -3.22170
   H       -0.87831        -1.63771         6.79169
   H       -4.28008        -0.41828         3.35349
   H       -5.72164        -2.19605         4.15569
   H       -6.16171        -4.06315         5.69981
   H       -4.49387        -4.68792         7.40124
   H       -2.37160        -3.44906         7.57223
   H        0.99672         2.76526         4.57859
   H       -2.44434         3.70109         3.63449
   H        1.13675         6.74788         2.03808
   H        1.71033         4.61240         3.12922
   H       -4.59265         4.34065         2.09368
   H       -3.32355         4.50900         0.88474
   H       -5.88084         6.17022         0.88709
   H       -5.53264         4.76048        -0.11052
   H       -4.57827         6.22772        -0.30416
   H       -3.50431         7.09016         4.22951
   H       -4.04585         5.41406         4.25096
   H       -5.62789         7.75351         3.09575
   H       -5.91611         6.93161         4.62227
   H       -6.15760         6.06398         3.11144
   H       -4.89673         8.29248         1.15265
   H       -1.44575        10.58631         0.12999
   H        0.03249         8.81708         1.01571
   H       -6.27738         7.71686        -1.74812
   H       -4.61561         8.36695        -1.70372
   H       -5.87240         9.20525        -2.64782
   H       -9.11761        11.60899        -1.27138
   H       -8.17336        10.67627        -0.07952
   H       -8.09757        10.25344        -1.80785
   H       -3.45244        14.74249         0.34678
   H       -7.23880        16.50539        -2.31984
   H       -6.95999        14.08234        -2.00322
   H       -3.11060        16.58382         1.88109
   H       -4.55067        17.59140         1.92695
   H       -1.69193        18.67962         1.98741
   H       -2.73401        18.44275         3.38447
   H       -3.17610        19.62394         2.16220
   H       -1.61348        18.56384        -0.28728
   H       -2.23913        17.67029        -1.66704
   H       -1.08128        16.36494         0.84452
   H       -0.22992        16.61262        -0.67528
   H       -1.61382        15.52891        -0.62018
   H       -3.06731        20.49173         0.13337
   H       -6.61986        21.45106        -2.06794
   H       -7.12672        19.06655        -2.32563
   H       -3.49027        22.55558        -0.18136
   H       -7.85679        25.94049        -3.12186
   H       -3.95960        27.87236        -0.68921
   H       -4.65742        30.09319        -1.32542
   H       -6.23110        31.59495        -2.48000
   H       -8.17047        30.67288        -3.68643
   H       -8.55055        28.23936        -3.74930
*
