# ORCA input file
# SCF done       -211.746639333376          0.000393564033
! CAM-B3LYP def2-SVP def2/J RIJCOSX Grid4 TightSCF
%maxcore 5000
%tddft
    Mode sTDDFT
    Ethresh 5.0
    maxcore 5000
end

%pal
  nprocs 6
  end
* xyz 0 1
   C       -2.70375         7.91550        -7.31516
   C       -2.00040         8.62607        -6.37867
   C       -1.90371        10.03222        -6.37698
   N       -1.80810        11.17528        -6.32308
   C       -1.21170         8.04897        -5.36155
   N       -0.48823         7.65984        -4.55932
   C       -3.29620         8.47542        -8.52568
   C       -3.49901         7.41926        -9.46138
   C       -4.00783         7.65153       -10.70622
   C       -4.35485         8.97108       -11.07458
   C       -4.17239        10.02829       -10.13734
   C       -3.63554         9.75959        -8.85727
   C       -4.53121        11.33855       -10.51407
   C       -5.04216        11.59506       -11.75700
   C       -5.21974        10.55360       -12.67992
   C       -4.88312         9.27003       -12.34592
   C       -3.10101         6.13874        -8.84542
   O       -3.08741         5.04145        -9.35577
   C       -2.77454         6.47056        -7.43095
   C       -2.69075         5.48640        -6.50319
   C       -2.74242         5.62262        -5.07471
   C       -2.05069         4.69963        -4.25761
   O       -1.36683         3.72356        -4.90343
   C       -0.58002         2.83341        -4.14870
   C       -2.05811         4.88574        -2.88633
   C       -2.75192         5.93345        -2.28177
   C       -3.54315         6.77278        -3.08344
   C       -3.50405         6.61387        -4.45986
   O       -4.37377         7.76369        -2.63908
   C       -5.01203         7.63646        -1.38715
   C       -2.52083         6.16299        -0.84928
   C       -2.09992         7.39629        -0.43301
   C       -1.77508         7.61341         0.92722
   C       -1.30808         8.73041         1.59776
   C       -1.03756        10.10232         1.07465
   C        0.17276        10.11589         0.12579
   N        1.37678         9.79597         0.87836
   C       -2.26853        10.71723         0.38832
   N       -2.04821        12.13551         0.16602
   C       -1.09871         8.33074         2.97115
   C       -0.58995         9.00317         4.01904
   C       -0.40555         8.35956         5.34552
   C       -0.90624         6.94794         5.43022
   C       -1.40898         6.28973         4.36983
   C       -1.50165         6.92538         3.10917
   C       -1.90347         6.49705         1.85976
   C       -2.35693         5.24138         1.39362
   C       -2.64624         5.08117         0.07706
   C       -0.99052         9.16496         6.47827
   C       -1.91793        10.10783         6.32645
   C       -2.47400        10.90444         7.40723
   C       -3.06467        12.15897         7.10116
   O       -3.10849        12.49847         5.78174
   C       -3.69374        13.72567         5.42145
   C       -3.51648        12.95591         8.12632
   C       -3.39825        12.57869         9.48005
   C       -2.96472        11.26991         9.76912
   C       -2.48006        10.48233         8.72314
   O       -3.06539        10.61825        10.94696
   C       -3.84024        11.11007        12.00744
   C       -3.66944        13.60760        10.44441
   C       -2.88911        13.89973        11.52275
   C       -3.13171        14.93483        12.50782
   C       -4.34277        15.51875        12.77701
   C       -4.54132        16.50711        13.76163
   N       -4.75850        17.31944        14.54356
   C       -5.54699        15.16873        12.13308
   N       -6.56182        14.90358        11.66458
   C       -1.88638        15.16491        13.22735
   C       -0.91827        14.22676        12.76743
   C       -1.51167        13.37438        11.71889
   O       -0.95981        12.48516        11.10726
   C        0.35015        14.19679        13.26910
   C        0.71658        15.12283        14.27202
   C       -0.24357        16.06983        14.73131
   C       -1.55115        16.07612        14.19342
   C        0.13632        16.99361        15.72607
   C        1.40267        16.98330        16.24446
   C        2.34672        16.04943        15.79257
   C        2.01056        15.13841        14.82808
   H       -4.14563         6.83801       -11.40300
   H       -3.51560        10.57714        -8.16360
   H       -4.38931        12.13744        -9.80098
   H       -5.31199        12.60258       -12.03659
   H       -5.62470        10.77356       -13.65652
   H       -5.01768         8.46383       -13.05235
   H       -2.61961         4.47458        -6.88728
   H       -0.12662         2.15856        -4.87290
   H       -1.18773         2.25445        -3.44583
   H        0.20736         3.36210        -3.60331
   H       -1.47166         4.24636        -2.24518
   H       -4.11207         7.27446        -5.05916
   H       -5.97586         8.13751        -1.49134
   H       -4.43897         8.12045        -0.59089
   H       -5.17483         6.58965        -1.12077
   H       -1.97334         8.18638        -1.15782
   H       -0.77653        10.74618         1.92043
   H        0.27861        11.12575        -0.27618
   H       -0.01210         9.42608        -0.71179
   H        1.31977         8.84187         1.22302
   H        2.19014         9.85819         0.27577
   H       -3.15844        10.50469         1.00839
   H       -2.42312        10.25680        -0.58924
   H       -1.97677        12.62584         1.05141
   H       -2.81677        12.53883        -0.35715
   H       -0.25441        10.02738         3.93328
   H        0.68461         8.32915         5.52119
   H       -0.83285         6.47707         6.39869
   H       -1.74448         5.26696         4.46789
   H       -2.45991         4.42119         2.08938
   H       -2.99635         4.12957        -0.29727
   H       -0.61368         8.91407         7.45956
   H       -2.27027        10.36614         5.33807
   H       -4.74005        13.78164         5.73804
   H       -3.64480        13.76650         4.33443
   H       -3.14042        14.57345         5.83814
   H       -3.91169        13.93975         7.92603
   H       -2.12300         9.49902         8.98123
   H       -4.14885        10.23402        12.57999
   H       -4.72488        11.64888        11.65295
   H       -3.26212        11.77312        12.66125
   H       -4.47833        14.28608        10.19742
   H        1.06620        13.47478        12.90536
   H       -2.25507        16.80961        14.55408
   H       -0.59476        17.70968        16.07181
   H        1.68391        17.69519        17.00598
   H        3.34182        16.05574        16.21179
   H        2.73348        14.41708        14.47581
*
