# ORCA input file
# SCF done       -211.632852791878          0.000884680809
! CAM-B3LYP def2-SVP def2/J RIJCOSX Grid4 TightSCF
%maxcore 5000
%tddft
    Mode sTDDFT
    Ethresh 5.0
    maxcore 5000
end

%pal
  nprocs 6
  end
* xyz 0 1
   C        3.18167        -0.82669         8.63571
   C        3.71915         0.22722         9.33666
   C        4.74458         0.09099        10.29166
   N        5.58984         0.03834        11.06716
   C        3.20634         1.53435         9.27908
   N        2.76914         2.59705         9.31906
   C        3.43054        -2.23419         8.94081
   C        2.33185        -2.99848         8.45017
   C        2.26004        -4.34848         8.63311
   C        3.30998        -5.00835         9.31235
   C        4.41966        -4.25208         9.78715
   C        4.46158        -2.85113         9.59294
   C        5.46255        -4.92318        10.45589
   C        5.41277        -6.27684        10.65106
   C        4.31930        -7.02077        10.18450
   C        3.29024        -6.39977         9.52978
   C        1.39503        -2.09756         7.75496
   O        0.30934        -2.36313         7.28334
   C        2.07517        -0.77527         7.71487
   C        1.60674         0.15173         6.82177
   C        2.23039         1.27760         6.23911
   C        1.51665         2.22569         5.52065
   C        2.26241         3.41552         4.95611
   C        3.55618         2.94898         4.39984
   C        4.27578         1.93162         5.06881
   C        3.74004         1.37675         6.33471
   N        5.37984         1.59072         4.44961
   S        5.51783         2.49945         3.10068
   N        4.13753         3.34504         3.29331
   C        0.12431         2.11708         5.25630
   C       -0.67791         3.07421         4.71998
   C       -2.02955         2.89314         4.27604
   C       -2.67729         1.67237         4.28410
   C       -3.96168         1.54328         3.72975
   C       -4.78021         0.42711         3.58294
   C       -4.45237        -0.94965         4.04366
   C       -5.63391        -1.69467         4.68571
   N       -5.11651        -2.74382         5.55332
   C       -3.85774        -1.80648         2.90234
   N       -4.78060        -1.90992         1.78472
   C       -5.95400         0.86979         2.86520
   C       -7.02349         0.19441         2.40143
   C       -8.10896         0.87455         1.63571
   C       -7.86038         2.32230         1.36049
   C       -6.79608         2.98752         1.84189
   C       -5.81271         2.30887         2.60500
   C       -4.60710         2.70895         3.13895
   C       -3.93970         3.95739         3.17411
   C       -2.70489         4.03879         3.72499
   C       -9.39437         0.65390         2.40927
   C       -9.97418         1.64312         3.08825
   C      -11.19302         1.59068         3.86768
   C      -11.41913         2.50537         4.85015
   C      -12.74902         2.64953         5.54951
   C      -13.84211         2.02225         4.76684
   C      -13.59161         1.02766         3.79122
   C      -12.21873         0.55840         3.47594
   N      -14.68758         0.60477         3.20364
   S      -15.96164         1.39701         3.83252
   N      -15.11782         2.31324         4.87930
   C      -10.38206         3.40283         5.28676
   C       -9.07694         3.04135         5.36303
   C       -8.01354         3.94036         5.61785
   C       -6.72350         3.54386         5.81543
   C       -5.56555         4.40312         5.96642
   C       -5.45780         5.69374         5.52056
   C       -4.28009         6.46158         5.61902
   N       -3.34790         7.13003         5.66586
   C       -6.47692         6.37812         4.82782
   N       -7.25727         6.97348         4.23149
   C       -4.49923         3.60990         6.55684
   C       -4.92713         2.25332         6.61643
   C       -6.29461         2.14684         6.08389
   O       -6.93926         1.12663         5.94012
   C       -4.13139         1.27321         7.13595
   C       -2.85811         1.61313         7.64353
   C       -2.42660         2.97026         7.58886
   C       -3.26389         3.96107         7.02981
   C       -1.16232         3.30274         8.11313
   C       -0.36872         2.34917         8.68953
   C       -0.79899         1.01574         8.75061
   C       -2.00993         0.65144         8.22669
   H        1.41385        -4.90922         8.26448
   H        5.31673        -2.30256         9.95615
   H        6.30087        -4.34518        10.81637
   H        6.21602        -6.78134        11.16693
   H        4.29604        -8.08818        10.34612
   H        2.44536        -6.96777         9.16809
   H        0.62531        -0.11615         6.44518
   H        2.46105         4.12554         5.76813
   H        1.69600         3.92711         4.18190
   H        4.03064         2.05670         7.14283
   H        4.18155         0.39997         6.53542
   H       -0.32976         1.16159         5.47165
   H       -0.29515         4.07692         4.58564
   H       -2.19404         0.79667         4.68984
   H       -3.66746        -0.86978         4.80408
   H       -6.21211        -2.18834         3.90362
   H       -6.27886        -0.97034         5.20492
   H       -4.64062        -2.34271         6.35509
   H       -5.87545        -3.31791         5.90224
   H       -3.69664        -2.80782         3.30650
   H       -2.88250        -1.37911         2.61734
   H       -4.80624        -1.03576         1.26986
   H       -4.47872        -2.63859         1.14850
   H       -7.13444        -0.86637         2.55952
   H       -8.22033         0.34467         0.67632
   H       -8.60202         2.82092         0.75434
   H       -6.65893         4.03848         1.63044
   H       -4.41712         4.82901         2.74878
   H       -2.18816         4.98728         3.75141
   H       -9.76173        -0.36167         2.43473
   H       -9.49664         2.61412         3.05170
   H      -12.97488         3.70386         5.72653
   H      -12.69105         2.17055         6.53511
   H      -12.14560         0.31871         2.41367
   H      -12.01973        -0.36637         4.03236
   H      -10.68077         4.39899         5.59132
   H       -8.80818         2.00606         5.21496
   H       -8.25061         4.99738         5.63459
   H       -4.47660         0.25091         7.17425
   H       -2.91549         4.98172         7.01160
   H       -0.83516         4.33053         8.06207
   H        0.59410         2.61772         9.09626
   H       -0.16714         0.27505         9.21723
   H       -2.33261        -0.37905         8.26141
*
