# ORCA input file
# SCF done       -233.715448418666          0.000440860621
! CAM-B3LYP def2-SVP def2/J RIJCOSX Grid4 TightSCF
%maxcore 5000
%tddft
    Mode sTDDFT
    Ethresh 5.0
    maxcore 5000
end

%pal
  nprocs 6
  end
* xyz 0 1
   C        0.68324         6.43267         2.67869
   C        1.51321         7.46327         2.33508
   C        1.78505         8.56750         3.17286
   N        2.02697         9.49604         3.80131
   C        2.25749         7.51755         1.14072
   N        2.91477         7.59241         0.20193
   C        0.08504         6.21554         3.98513
   C       -0.35018         4.85911         4.07522
   C       -0.91183         4.36146         5.21660
   C       -1.06956         5.21022         6.33473
   C       -0.65735         6.57247         6.24306
   C       -0.08009         7.06176         5.05069
   C       -0.82789         7.41119         7.36388
   C       -1.37264         6.92836         8.52231
   C       -1.77437         5.58683         8.61294
   C       -1.62688         4.74644         7.54273
   C       -0.10930         4.17648         2.79594
   O       -0.30748         3.02548         2.50184
   C        0.37934         5.25756         1.87220
   C        0.29635         5.08078         0.54443
   C        0.44900         6.07677        -0.50191
   C        1.35715         5.86902        -1.54144
   C        2.30212         4.73695        -1.72018
   O        2.40404         3.74254        -1.05501
   N        3.07923         5.07741        -2.83006
   C        2.71720         6.31576        -3.37949
   O        3.24009         6.82842        -4.32815
   C        1.59678         6.81169        -2.53736
   C        0.89854         8.00355        -2.59705
   C       -0.04393         8.20561        -1.59622
   C       -0.26329         7.28752        -0.56707
   C       -1.29625         7.71066         0.40094
   O       -1.68857         7.13024         1.37083
   S       -1.93023         9.31961        -0.07469
   C       -0.87083         9.42874        -1.52373
   O       -0.87191        10.35347        -2.27378
   C        4.17916         4.38015        -3.31533
   C        4.46730         3.10381        -3.03590
   C        5.67409         2.46574        -3.50093
   C        5.85070         1.09314        -3.39717
   F        4.84823         0.33719        -2.92473
   C        7.03174         0.43286        -3.77493
   F        7.06176        -0.90562        -3.68221
   C        8.13488         1.09955        -4.27092
   C        7.98623         2.49187        -4.40792
   C        6.77837         3.15989        -4.04537
   N        6.96890         4.46466        -4.29233
   N        8.18333         4.53845        -4.75303
   N        8.84971         3.42224        -4.84038
   C        8.74100         5.78471        -5.17675
   C        9.37667         0.42751        -4.63624
   C        9.98715         0.63140        -5.87482
   C        9.54769         1.45024        -7.02904
   O        8.52096         2.04081        -7.21975
   N       10.60463         1.38611        -7.95845
   C       11.61332         0.49815        -7.55783
   O       12.58533         0.19640        -8.18920
   C       11.19466         0.01853        -6.21473
   C       11.83258        -0.87482        -5.37473
   C       11.22891        -1.08821        -4.14086
   C       10.05698        -0.43608        -3.76187
   C        9.67876        -0.66072        -2.34862
   O        8.84750        -0.09786        -1.70577
   S       10.77621        -1.90165        -1.64352
   C       11.79167        -1.99760        -3.11696
   O       12.75729        -2.68978        -3.21745
   C       10.57404         2.13797        -9.11886
   C       11.62330         2.35937        -9.93120
   C       11.48266         3.18546       -11.08218
   C       12.51247         3.58368       -11.87596
   C       12.42733         4.39947       -13.07856
   C       11.31593         5.03863       -13.56085
   C       11.30058         5.82327       -14.73408
   N       11.21776         6.47489       -15.67540
   C       10.04122         5.03757       -12.95639
   N        8.98105         5.09983       -12.51907
   C       13.75799         4.45445       -13.67208
   C       14.66565         3.75400       -12.82724
   C       13.94178         3.21529       -11.66408
   O       14.42111         2.61696       -10.72635
   C       15.99442         3.64917       -13.12207
   C       16.48734         4.24726       -14.30275
   C       15.58553         4.94436       -15.15821
   C       14.21536         5.03891       -14.82473
   C       16.08769         5.53577       -16.33572
   C       17.41540         5.44480       -16.65337
   C       18.30225         4.75894       -15.80965
   C       17.84814         4.17296       -14.65935
   H       -1.22954         3.33065         5.26663
   H        0.21031         8.09963         5.00336
   H       -0.51419         8.44197         7.28995
   H       -1.49654         7.57729         9.37613
   H       -2.20183         5.22299         9.53512
   H       -1.93508         3.71336         7.60730
   H        0.09662         4.06753         0.20853
   H        1.07607         8.74456        -3.35989
   H        4.80623         4.97804        -3.96301
   H        3.81057         2.49906        -2.42875
   H        8.11039         6.58543        -4.79756
   H        8.76915         5.82573        -6.26697
   H        9.75627         5.87830        -4.79438
   H       12.75134        -1.36960        -5.64657
   H        9.60468         2.59225        -9.29213
   H       12.59309         1.93351        -9.72275
   H       10.47609         3.50317       -11.32293
   H       16.66049         3.11466       -12.46110
   H       13.56001         5.57201       -15.49492
   H       15.40155         6.06367       -16.98164
   H       17.79031         5.90132       -17.55708
   H       19.34680         4.69730       -16.07595
   H       18.52577         3.64355       -14.00566
*
