# ORCA input file
# SCF done       -136.928628483307          0.000746142443
! CAM-B3LYP def2-SVP def2/J RIJCOSX Grid4 TightSCF
%maxcore 5000
%tddft
    Mode sTDDFT
    Ethresh 5.0
    maxcore 5000
end

%pal
  nprocs 6
  end
* xyz 0 1
   C        4.30554         0.38964        -2.80358
   C        4.37991         1.67875        -3.34449
   C        3.15065         2.22696        -3.60173
   S        2.87107         3.81037        -4.28055
   C        1.05945         3.86151        -4.32320
   S        1.87014         1.13818        -3.17251
   C        3.01806        -0.07034        -2.63467
   C        2.50836        -1.29274        -2.13161
   C        3.24706        -2.32332        -1.63664
   C        2.71391        -3.52736        -1.12812
   C        1.43438        -4.09060        -1.26438
   C        1.29320        -5.27491        -0.46316
   C        2.43242        -5.61997         0.21055
   S        3.69747        -4.47577        -0.03365
   O        3.61780        -3.42575         1.32909
   O        0.20331        -6.05676        -0.46761
   C        0.47639        -3.63646        -2.19852
   C       -0.88717        -3.65408        -2.08197
   C       -1.72666        -3.12514        -3.07946
   S       -1.12061        -2.79317        -4.68962
   C       -2.62725        -2.04179        -5.16444
   C       -3.54627        -2.08994        -4.11248
   C       -3.05262        -2.70457        -2.96615
   C       -3.87700        -2.90923        -1.73007
   C       -5.18275        -2.10156        -1.78841
   C       -6.07305        -2.56235        -0.74792
   N       -6.76275        -2.96634         0.06850
   C       -5.84121        -2.26386        -3.17505
   C       -7.14627        -1.64518        -3.19751
   N       -8.16058        -1.12035        -3.23434
   C       -4.95027        -1.59645        -4.23033
   C       -2.81317        -1.58157        -6.47435
   C       -3.51511        -0.48840        -6.99625
   C       -3.59661        -0.56842        -8.41983
   C       -2.89028        -1.61860        -8.96321
   S       -2.17120        -2.60746        -7.77875
   O       -3.28827        -3.87906        -7.38086
   O       -4.21637         0.32670        -9.20875
   C       -3.87211         0.70253        -6.28984
   C       -3.38993         1.06135        -5.08122
   C       -3.57623         2.32947        -4.42659
   C       -2.54973         2.80289        -3.56137
   C       -2.74774         4.06997        -3.11017
   S       -1.66435         4.95522        -2.05923
   C       -2.55004         6.52808        -1.88445
   S       -4.23023         4.73259        -3.71867
   C       -4.59305         3.25658        -4.58656
   C       -5.88997         3.21775        -5.21258
   C       -6.63767         2.14109        -5.44631
   H        5.17264        -0.18903        -2.54192
   H        5.29776         2.20142        -3.54395
   H        0.78950         4.81966        -4.75476
   H        0.66690         3.78501        -3.31307
   H        0.68642         3.05140        -4.94369
   H        1.43147        -1.36762        -2.11630
   H        4.31980        -2.20824        -1.55377
   H        2.59145        -6.51193         0.77938
   H        4.34038        -3.57990         1.94409
   H       -0.44306        -5.69191        -1.09115
   H        0.88234        -3.16515        -3.08584
   H       -1.36470        -3.93522        -1.15127
   H       -3.31136        -2.61187        -0.84305
   H       -4.11513        -3.97474        -1.62464
   H       -4.97322        -1.03762        -1.62048
   H       -5.95711        -3.33180        -3.39815
   H       -4.97179        -0.50905        -4.08752
   H       -5.32946        -1.79926        -5.23537
   H       -2.73255        -1.79286       -10.00659
   H       -3.07427        -4.68820        -7.85368
   H       -4.65561         0.99580        -8.66642
   H       -4.50989         1.40779        -6.81082
   H       -2.67686         0.40952        -4.59493
   H       -1.68060         2.22239        -3.30772
   H       -1.93682         7.15427        -1.24470
   H       -3.51802         6.35097        -1.42435
   H       -2.66832         6.98753        -2.86171
   H       -6.29684         4.19707        -5.43917
   H       -6.31510         1.14555        -5.19682
   H       -7.61514         2.23032        -5.88572
*
