# ORCA input file
# SCF done       -118.058216900732          0.000857346776
! CAM-B3LYP def2-SVP def2/J RIJCOSX Grid4 TightSCF
%maxcore 5000
%tddft
    Mode sTDDFT
    Ethresh 5.0
    maxcore 5000
end

%pal
  nprocs 6
  end
* xyz 0 1
   C        1.07025        -0.94372        -1.73596
   C        1.46523         0.40007        -1.74724
   C        2.49033         0.66317        -0.87796
   S        3.22760         2.22660        -0.63194
   C        4.51342         1.82007         0.58204
   S        2.97902        -0.76403        -0.02321
   C        1.78426        -1.72763        -0.85981
   C        1.69182        -3.11630        -0.56026
   C        0.83827        -3.98176        -1.14976
   C        0.75198        -5.36914        -0.83949
   N       -0.11674        -6.19299        -1.49561
   C       -0.00953        -7.46796        -1.01663
   C        0.96017        -7.45839        -0.01836
   C        1.43221        -6.15446         0.08993
   C       -0.77018        -8.51998        -1.50874
   C       -1.42114        -9.45446        -1.92965
   C       -2.17216       -10.50040        -2.43825
   S       -3.20297       -10.27382        -3.82701
   C       -3.70110       -11.95004        -3.78602
   C       -3.08377       -12.62110        -2.75034
   C       -2.22784       -11.80146        -1.98841
   C       -1.43128       -12.29281        -0.82072
   C       -1.98585       -13.63309        -0.31898
   C       -1.07714       -14.19796         0.65232
   N       -0.33077       -14.63072         1.40120
   C       -2.16234       -14.59159        -1.51641
   C       -2.50724       -15.91843        -1.05881
   N       -2.81838       -16.95704        -0.69944
   C       -3.27432       -14.07368        -2.44179
   C       -4.63126       -12.41775        -4.76347
   N       -4.93428       -11.66430        -5.86220
   C       -5.84600       -12.31380        -6.64010
   C       -6.14351       -13.51605        -6.02001
   C       -5.38673       -13.58189        -4.84826
   C       -6.32799       -11.77132        -7.83502
   C       -6.73556       -11.28995        -8.86738
   C       -7.20265       -10.73199       -10.06900
   C       -6.58910       -10.96072       -11.32485
   C       -7.21655       -10.30597       -12.34244
   S       -6.73087       -10.35535       -14.02023
   C       -7.99332        -9.29828       -14.78244
   S       -8.58384        -9.38945       -11.78161
   C       -8.30357        -9.89745       -10.14061
   C       -9.13723        -9.47430        -9.05535
   C      -10.18684        -8.66276        -9.16784
   H        0.27918        -1.32520        -2.35572
   H        1.02234         1.15856        -2.36660
   H        5.03690         2.74632         0.79581
   H        5.19574         1.09001         0.15604
   H        4.05061         1.43039         1.48445
   H        2.36980        -3.48036         0.19874
   H        0.16207        -3.62508        -1.91600
   H       -0.74530        -5.90794        -2.22860
   H        1.27474        -8.30978         0.55232
   H        2.18646        -5.81239         0.76978
   H       -1.44635       -11.55037        -0.01823
   H       -0.38376       -12.42060        -1.11861
   H       -2.95893       -13.48115         0.16493
   H       -1.21426       -14.65157        -2.06577
   H       -4.24537       -14.22225        -1.95535
   H       -3.27680       -14.65395        -3.36785
   H       -4.53532       -10.76340        -6.07093
   H       -6.83176       -14.25412        -6.38076
   H       -5.41557       -14.38166        -4.13743
   H       -5.72397       -11.58263       -11.46362
   H       -7.76796        -9.27178       -15.84358
   H       -7.93529        -8.29921       -14.35980
   H       -8.97692        -9.72852       -14.61663
   H       -8.84834        -9.87596        -8.09183
   H      -10.48749        -8.25885       -10.12112
   H      -10.77727        -8.38187        -8.31445
*
