# ORCA input file
# SCF done       -150.290212559201          0.000913564949
! CAM-B3LYP def2-SVP def2/J RIJCOSX Grid4 TightSCF
%maxcore 5000
%tddft
    Mode sTDDFT
    Ethresh 5.0
    maxcore 5000
end

%pal
  nprocs 6
  end
* xyz 0 1
   C       -2.40453        -3.33967        -1.08304
   S       -0.98565        -4.30324        -0.89428
   C       -2.47012        -2.39882        -0.10496
   S       -3.56290        -1.12384         0.34131
   C       -2.47644        -0.77265         1.68581
   N       -1.43451        -1.49785         1.80115
   C       -1.37424        -2.43585         0.81846
   C       -0.45661        -3.43567         0.52687
   C        0.73533        -3.79039         1.19398
   C        1.19191        -3.13826         2.29886
   C        2.36676        -3.47126         2.99447
   C        2.89335        -2.83419         4.13669
   C        4.10005        -3.43257         4.60054
   C        4.74458        -2.90508         5.73329
   C        4.20192        -1.82469         6.37379
   C        3.01051        -1.23529         5.91640
   C        2.36000        -1.72480         4.81705
   C        4.50404        -4.53405         3.81726
   S        3.38049        -4.79675         2.51757
   C        5.62378        -5.35601         4.00747
   C        5.94603        -6.41946         3.21250
   C        7.06787        -7.24080         3.45397
   O        7.87060        -6.96147         4.49899
   C        8.87278        -7.87229         4.54901
   C        8.71960        -8.78340         3.48950
   C        7.55880        -8.37934         2.78927
   C        6.93318        -9.03057         1.60987
   F        5.76103        -8.49677         1.24908
   F        7.70342        -8.97854         0.49867
   F        6.67702       -10.34175         1.81057
   O        9.59984        -9.78737         3.32811
   C        9.66517       -10.52075         2.11985
   C        9.83835        -7.77066         5.57078
   C       10.84460        -8.66763         5.77527
   C       11.82206        -8.57163         6.77736
   C       12.84771        -9.49921         7.05180
   C       13.68270        -9.10371         8.13594
   C       14.74912        -9.93275         8.52900
   C       14.96767       -11.10817         7.86517
   C       14.14272       -11.49907         6.79580
   C       13.09900       -10.71426         6.38958
   C       13.30511        -7.86790         8.69774
   S       11.91568        -7.22673         7.87409
   C       13.92428        -7.19558         9.76343
   C       13.53858        -5.99189        10.26881
   C       14.18673        -5.33857        11.33547
   S       15.58361        -6.00189        12.16663
   C       13.88252        -4.12158        11.90991
   S       12.67609        -2.90741        11.64097
   C       13.41241        -2.00058        12.96176
   N       14.42200        -2.52129        13.53490
   C       14.73643        -3.72681        12.98082
   C       15.73084        -4.65024        13.25545
   C       16.76611        -4.61950        14.24124
   C       16.93321        -3.61924        15.10788
   H       -3.08087        -3.53174        -1.88994
   H       -2.71881         0.02748         2.35741
   H        1.29273        -4.62397         0.78793
   H        0.61300        -2.30679         2.67482
   H        5.65948        -3.35259         6.08946
   H        4.69063        -1.41325         7.24438
   H        2.60943        -0.38407         6.44597
   H        1.44598        -1.26992         4.46838
   H        6.26219        -5.12808         4.84910
   H        5.31774        -6.65353         2.36949
   H       10.56432       -11.12943         2.20812
   H        9.76215        -9.86162         1.25574
   H        8.80366       -11.17795         1.99578
   H        9.73728        -6.91317         6.22240
   H       10.90444        -9.52695         5.12626
   H       15.38542        -9.63947         9.34970
   H       15.78307       -11.75101         8.16133
   H       14.34210       -12.43422         6.29413
   H       12.46713       -11.01934         5.56991
   H       14.78185        -7.68343        10.20852
   H       12.68625        -5.47537         9.84580
   H       12.99629        -1.05225        13.24022
   H       17.42599        -5.47705        14.24608
   H       16.27749        -2.76646        15.10217
   H       17.72604        -3.63543        15.83436
*
