# ORCA input file
# SCF done       -171.955175839532          0.000701246521
! CAM-B3LYP def2-SVP def2/J RIJCOSX Grid4 TightSCF
%maxcore 5000
%tddft
    Mode sTDDFT
    Ethresh 5.0
    maxcore 5000
end

%pal
  nprocs 6
  end
* xyz 0 1
   C       -7.25453        -3.51011         3.45661
   O       -5.99436        -3.16587         3.70185
   C       -5.34123        -3.07110         2.51345
   C       -6.23098        -3.35037         1.47549
   C       -7.47403        -3.64886         2.10738
   C       -8.76899        -4.13672         1.56442
   F       -9.67759        -4.29194         2.53573
   F       -9.33512        -3.34884         0.63828
   F       -8.65296        -5.35224         0.97672
   O       -5.84908        -3.29415         0.18137
   C       -6.75676        -3.65163        -0.84195
   C       -3.94472        -2.79022         2.51099
   C       -3.21815        -2.66646         1.37080
   C       -1.83142        -2.45706         1.27085
   C       -1.06820        -2.23073         0.09659
   C        0.31792        -1.99547         0.43311
   C        0.58011        -2.04878         1.76754
   S       -0.82859        -2.41558         2.69767
   O       -0.50024        -4.05334         3.03949
   O        1.27224        -1.68140        -0.45256
   C       -1.67619        -2.12911        -1.15418
   C       -1.20737        -1.95860        -2.44386
   C       -2.11493        -1.67365        -3.46719
   S       -3.79663        -1.40711        -3.07600
   C       -4.19971        -0.96312        -4.72249
   C       -3.05376        -1.10196        -5.53716
   C       -1.91113        -1.45997        -4.84069
   C       -0.56576        -1.58894        -5.48756
   C       -0.52921        -0.81220        -6.81049
   C       -0.58233         0.60780        -6.54746
   N       -0.63499         1.72885        -6.33330
   C       -1.73437        -1.21543        -7.68557
   C       -1.69316        -2.64099        -7.92291
   N       -1.65850        -3.76762        -8.10939
   C       -3.06102        -0.82970        -7.01079
   C       -5.49663        -0.56330        -5.01927
   C       -6.55221        -0.22991        -4.13330
   C       -7.76143         0.02156        -4.82872
   C       -7.64539        -0.07339        -6.20409
   S       -6.10383        -0.57491        -6.69233
   O       -6.09495        -2.30997        -6.75957
   O       -8.90271         0.44425        -4.27137
   C       -6.34876        -0.03900        -2.73513
   C       -7.21944        -0.20007        -1.70729
   C       -6.77016        -0.04373        -0.35932
   O       -5.46454         0.14736        -0.11741
   C       -5.25020         0.21418         1.22978
   C       -6.46747         0.06166         1.87523
   C       -7.44457        -0.10390         0.85196
   C       -8.89821        -0.18541         1.12528
   F       -9.62178        -0.54219         0.04961
   F       -9.20454        -1.05492         2.09947
   F       -9.40836         1.00269         1.52062
   O       -6.84798         0.04375         3.16678
   C       -5.88825         0.22266         4.18048
   C       -3.89914         0.43728         1.66953
   C       -2.86913         0.58259         0.83571
   H       -7.92498        -3.62456         4.28376
   H       -6.19761        -3.53230        -1.76879
   H       -7.62265        -2.98800        -0.86219
   H       -7.08275        -4.68977        -0.74504
   H       -3.48471        -2.69366         3.48623
   H       -3.76204        -2.75412         0.44466
   H        1.51763        -1.84896         2.24277
   H       -1.15786        -4.43788         3.62652
   H        0.87586        -1.59304        -1.32897
   H       -2.75653        -2.15591        -1.09603
   H       -0.16650        -2.05417        -2.72523
   H       -0.34802        -2.64379        -5.68712
   H        0.21082        -1.20714        -4.81968
   H        0.40640        -1.02635        -7.34210
   H       -1.66851        -0.71660        -8.66086
   H       -3.86402        -1.39986        -7.48347
   H       -3.25690         0.23416        -7.18378
   H       -8.39694         0.19369        -6.91629
   H       -6.48102        -2.64206        -7.57503
   H       -8.78429         0.56178        -3.31817
   H       -5.35009         0.26035        -2.45248
   H       -8.23667        -0.53775        -1.83092
   H       -6.44694         0.17217         5.11388
   H       -5.40303         1.19967         4.09967
   H       -5.13885        -0.57291         4.16190
   H       -3.73828         0.48984         2.73360
   H       -2.99801         0.53099        -0.23019
   H       -1.87368         0.75588         1.20315
*
