# ORCA input file
# SCF done       -176.410671006677          0.000398279940
! CAM-B3LYP def2-SVP def2/J RIJCOSX Grid4 TightSCF
%maxcore 5000
%tddft
    Mode sTDDFT
    Ethresh 5.0
    maxcore 5000
end

%pal
  nprocs 6
  end
* xyz 0 1
   C       -0.87749        -2.10117         4.59311
   C       -0.79738        -2.56998         5.89492
   F       -1.39979        -1.88191         6.86967
   C       -0.10793        -3.74262         6.21223
   F       -0.05537        -4.15439         7.48338
   C        0.51704        -4.48311         5.22290
   C        0.43966        -4.01430         3.92551
   C       -0.24631        -2.83275         3.59723
   C       -0.14594        -2.60614         2.15817
   C       -0.60135        -1.50263         1.49399
   C       -1.26479        -0.41875         2.11311
   N       -1.80100         0.49557         2.55093
   C       -0.47836        -1.26892         0.10768
   N       -0.44449        -0.99788        -1.00749
   C        0.59523        -3.72291         1.59013
   C        1.00600        -4.62484         2.70362
   O        1.59463        -5.67678         2.62998
   C        0.74951        -4.01748         0.27665
   C        1.60542        -5.04623        -0.24805
   C        2.87247        -5.30725         0.20349
   F        3.51633        -4.64383         1.15332
   S        3.73364        -6.48245        -0.71364
   C        2.33509        -6.65657        -1.72808
   F        2.37826        -7.56032        -2.70766
   C        1.28105        -5.85110        -1.40317
   C       -0.01007        -5.81676        -2.04243
   C       -0.26108        -6.24793        -3.29418
   C       -1.53541        -6.18906        -3.93135
   N       -1.63678        -6.32781        -5.29750
   C       -2.92962        -6.13003        -5.65820
   C       -3.78553        -6.00423        -6.75136
   C       -5.04624        -5.71866        -6.22474
   N       -4.96677        -5.67136        -4.84358
   C       -3.67988        -5.91729        -4.47674
   C       -2.80346        -5.95559        -3.39164
   C       -6.25603        -5.37410        -6.89214
   C       -6.41996        -5.33148        -8.22855
   C       -7.60818        -4.83364        -8.89198
   C       -8.11978        -5.45549        -9.99304
   F       -7.61523        -6.54242       -10.57354
   S       -9.58518        -4.77589       -10.62656
   C       -9.50495        -3.59462        -9.37887
   F      -10.43516        -2.64522        -9.32380
   C       -8.41856        -3.68656        -8.53961
   C       -8.17348        -2.66252        -7.56441
   C       -7.00185        -2.44698        -6.92127
   C       -6.84660        -1.47445        -5.90746
   C       -5.78756        -1.35759        -5.05636
   C       -5.96915        -0.59579        -3.78949
   O       -6.82267         0.22303        -3.55047
   C       -4.93999        -1.13485        -2.86913
   C       -4.11427        -2.02847        -3.57299
   C       -3.15108        -2.76370        -2.90195
   C       -3.06093        -2.59760        -1.53079
   C       -3.84799        -1.67622        -0.84325
   C       -4.80114        -0.92456        -1.51048
   F       -3.69418        -1.54945         0.48257
   F       -2.21739        -3.37959        -0.83641
   C       -4.51356        -2.04611        -4.98154
   C       -3.71911        -2.48922        -6.00366
   C       -4.00392        -2.36637        -7.38100
   N       -4.14790        -2.28193        -8.51626
   C       -2.43033        -3.03210        -5.81026
   N       -1.37375        -3.47201        -5.72439
   H       -1.42809        -1.19549         4.39854
   H        1.04743        -5.39119         5.46156
   H        0.19798        -3.45900        -0.46703
   H       -0.80504        -5.38849        -1.45217
   H        0.54785        -6.61984        -3.90733
   H       -0.84837        -6.40363        -5.91716
   H       -3.54252        -6.08507        -7.79081
   H       -5.75140        -5.52439        -4.23235
   H       -3.03485        -5.85627        -2.35031
   H       -7.07753        -5.07612        -6.25085
   H       -5.65195        -5.72046        -8.88019
   H       -9.00672        -1.99375        -7.38326
   H       -6.16142        -3.07960        -7.14401
   H       -7.69625        -0.83842        -5.68265
   H       -2.51089        -3.48105        -3.38838
   H       -5.42232        -0.22115        -0.97959
*
