# ORCA input file
# SCF done       -183.939169952374          0.000485720943
! CAM-B3LYP def2-SVP def2/J RIJCOSX Grid4 TightSCF
%maxcore 5000
%tddft
    Mode sTDDFT
    Ethresh 5.0
    maxcore 5000
end

%pal
  nprocs 6
  end
* xyz 0 1
   C       -1.83312        -3.50864        -0.14396
   C       -2.73202        -2.46032        -0.00683
   F       -3.76495        -2.37956        -0.85323
   C       -2.58412        -1.49268         0.98626
   F       -3.47499        -0.49801         1.08191
   C       -1.52215        -1.55118         1.87509
   C       -0.63020        -2.59546         1.73975
   C       -0.76990        -3.57426         0.74206
   C        0.33246        -4.53158         0.86487
   C        0.50737        -5.64039         0.06961
   C       -0.35318        -5.99326        -0.99058
   N       -1.01339        -6.33837        -1.86413
   C        1.54157        -6.59128         0.18883
   N        2.34150        -7.41637         0.22343
   C        1.15520        -4.10817         1.97073
   C        0.58298        -2.87588         2.54453
   O        1.01445        -2.19527         3.45002
   C        2.32656        -4.72715         2.36459
   C        3.12609        -4.49709         3.47009
   C        4.36964        -5.08348         3.85747
   C        4.27886        -4.43492         5.17806
   C        4.67968        -4.13422         6.42448
   S        3.52328        -3.03573         7.14571
   C        2.50201        -3.01187         5.71891
   C        3.04172        -3.80121         4.77862
   C        5.33485        -5.89355         3.27713
   C        5.36230        -6.23203         1.94061
   C        6.32296        -7.09000         1.39200
   O        7.21428        -7.69113         2.20637
   C        8.03200        -8.46701         1.46335
   C        7.65546        -8.37326         0.09538
   C        6.56694        -7.48786         0.05516
   C        5.83192        -6.99831        -1.14776
   F        4.91738        -6.06250        -0.88094
   F        6.66733        -6.43105        -2.04763
   F        5.19055        -7.97622        -1.80841
   O        8.33906        -9.07937        -0.79933
   C        7.97882        -9.11061        -2.17123
   C        9.08141        -9.20035         2.01180
   C        9.35074        -9.26178         3.36406
   C       10.42523        -9.92767         3.92579
   C       11.59898       -10.60831         3.47987
   C       11.99911       -10.85702         4.88479
   C       12.78544       -11.29822         5.87789
   S       12.07029       -10.85691         7.41725
   C       10.70232       -10.06203         6.66667
   C       10.81714       -10.15607         5.33196
   C       12.23480       -10.84852         2.27722
   C       13.47084       -11.46234         2.21278
   C       14.17227       -11.62139         1.01978
   C       15.45648       -12.08900         0.84579
   C       15.87851       -12.54076        -0.50032
   O       15.28182       -12.38321        -1.54172
   C       17.15500       -13.26064        -0.28772
   C       17.51891       -13.16809         1.06716
   C       18.66941       -13.79344         1.51785
   C       19.43351       -14.49500         0.59584
   C       19.07150       -14.57155        -0.74864
   C       17.91943       -13.95115        -1.20635
   F       19.84182       -15.25388        -1.60472
   F       20.54340       -15.11384         1.01364
   C       16.53278       -12.33647         1.76713
   C       16.73918       -11.75773         2.99670
   C       15.94975       -10.73718         3.56456
   N       15.38734        -9.87874         4.08064
   C       17.84561       -12.04179         3.82384
   N       18.70413       -12.24660         4.55818
   H       -1.99206        -4.22756        -0.93056
   H       -1.40215        -0.80352         2.64276
   H        2.67354        -5.53190         1.73114
   H        5.53057        -4.44215         6.99881
   H        1.62267        -2.40206         5.71774
   H        6.12690        -6.25667         3.91905
   H        4.63794        -5.80773         1.26961
   H        6.95038        -9.44784        -2.30797
   H        8.65785        -9.83222        -2.62193
   H        8.12192        -8.13837        -2.64516
   H        9.68554        -9.74374         1.30329
   H        8.67441        -8.75689         4.04124
   H       13.71632       -11.82833         5.88239
   H        9.96065        -9.60879         7.29345
   H       11.78112       -10.49017         1.36312
   H       13.89610       -11.82656         3.13548
   H       13.64350       -11.41335         0.09470
   H       18.99165       -13.76686         2.54582
   H       17.63628       -14.00943        -2.24514
*
