# ORCA input file
# SCF done       -166.530090207201          0.000223495814
! CAM-B3LYP def2-SVP def2/J RIJCOSX Grid4 TightSCF
%maxcore 5000
%tddft
    Mode sTDDFT
    Ethresh 5.0
    maxcore 5000
end

%pal
  nprocs 6
  end
* xyz 0 1
   C      -11.58701        -7.37554        -1.83344
   S      -10.15002        -8.00687        -1.10412
   C       -9.31166        -6.54449        -1.46363
   C      -10.13811        -5.63493        -2.11861
   C      -11.44366        -6.11842        -2.32852
   S       -9.33221        -4.13526        -2.48824
   C       -7.87749        -4.73684        -1.74614
   C       -6.62125        -4.17515        -1.49655
   C       -5.80408        -5.02803        -0.79237
   S       -6.58373        -6.57107        -0.47831
   C       -8.02339        -6.03197        -1.25208
   C       -4.50191        -4.72552        -0.29561
   S       -3.75783        -3.21709        -0.76372
   C       -2.40884        -3.53067         0.25002
   C       -2.51332        -4.71684         0.90927
   C       -3.70460        -5.41590         0.59151
   C       -4.01090        -6.77234         1.13423
   C       -3.05801        -7.23292         2.25379
   C       -1.59747        -6.73064         2.13614
   O       -0.80242        -7.47294         1.23678
   C       -1.05608        -7.35061        -0.14359
   C       -1.53210        -5.21229         1.92152
   N       -3.58943        -6.83138         3.54116
   C       -4.38933        -7.67527         4.24923
   C       -5.40855        -7.29893         5.04383
   C       -6.16860        -8.22394         5.84126
   S       -5.23266        -9.66656         6.32776
   C       -6.43022       -10.93910         6.14577
   C       -6.16476       -12.19856         5.71167
   S       -7.57253       -13.19027         5.73050
   C       -8.53461       -11.88098         6.30330
   C       -7.79622       -10.75574         6.48737
   S       -8.40357        -9.24135         7.13431
   C       -7.47466        -8.05336         6.16934
   C       -8.25708        -6.91828         5.75965
   C       -9.58299        -6.95784         5.53268
   C      -10.36930        -5.84702         5.09904
   S       -9.84537        -4.19904         5.31924
   C      -11.25474        -3.60637         4.53811
   C      -12.07991        -4.60630         4.12145
   C      -11.57459        -5.88922         4.43472
   C      -12.28705        -7.13831         4.02073
   C      -13.23485        -6.88897         2.84850
   C      -14.15831        -5.69063         3.20728
   O      -14.85356        -5.90197         4.41766
   C      -15.93914        -6.78855         4.34498
   C      -13.35226        -4.39685         3.36167
   N      -12.60454        -6.68689         1.54761
   C      -11.48908        -5.90413         1.32538
   C      -10.28194        -6.07767         1.89476
   C       -9.20497        -5.15083         1.76764
   S       -7.72398        -5.48092         2.65083
   C       -7.06334        -3.95979         2.17143
   C       -7.94826        -3.27038         1.34374
   C       -9.15909        -3.93650         1.12549
   S       -7.32462        -1.73137         0.82197
   C       -5.87987        -2.00392         1.75319
   C       -4.72024        -1.24227         1.99595
   C       -3.87372        -1.88347         2.83970
   S       -4.46679        -3.42507         3.36776
   C       -5.89173        -3.22916         2.41360
   H      -12.46271        -7.99303        -1.85366
   H      -12.22274        -5.56477        -2.81952
   H       -6.32854        -3.18308        -1.78767
   H       -1.61515        -2.81262         0.30583
   H       -4.00290        -7.49200         0.31002
   H       -5.02769        -6.78629         1.54349
   H       -3.01422        -8.32764         2.24774
   H       -1.12254        -6.95541         3.09988
   H       -0.21378        -7.83457        -0.63644
   H       -1.10607        -6.30735        -0.46572
   H       -1.97730        -7.86178        -0.43965
   H       -0.51489        -4.93488         1.63686
   H       -1.74809        -4.73038         2.87967
   H       -3.85025        -5.85469         3.59255
   H       -4.12823        -8.72077         4.15175
   H       -5.70155        -6.25925         5.06981
   H       -5.22201       -12.60567         5.40873
   H       -9.57767       -12.02316         6.49830
   H       -7.72848        -5.98887         5.59882
   H      -10.11387        -7.89515         5.63547
   H      -11.38869        -2.54864         4.42786
   H      -12.90014        -7.48528         4.85907
   H      -11.58663        -7.93481         3.76872
   H      -13.86403        -7.78108         2.72467
   H      -14.89353        -5.55678         2.39088
   H      -16.45422        -6.71366         5.30091
   H      -15.62294        -7.82665         4.19148
   H      -16.62837        -6.50686         3.53873
   H      -13.97899        -3.66824         3.88010
   H      -13.11979        -3.99222         2.37248
   H      -13.32335        -6.51915         0.85422
   H      -11.60444        -5.13334         0.56936
   H      -10.09731        -6.91311         2.54863
   H       -9.96222        -3.53502         0.53692
   H       -4.53049        -0.27674         1.56553
   H       -2.92257        -1.55223         3.20460
*
