# ORCA input file
# SCF done       -149.947524983071          0.000915727204
! CAM-B3LYP def2-SVP def2/J RIJCOSX Grid4 TightSCF
%maxcore 5000
%tddft
    Mode sTDDFT
    Ethresh 5.0
    maxcore 5000
end

%pal
  nprocs 6
  end
* xyz 0 1
   C       -0.20784        -6.76483        -0.83432
   S       -0.80431        -5.22768        -1.35124
   C        0.58505        -4.43353        -0.68672
   O        0.80177        -3.11713        -0.82106
   C        1.45031        -5.32029        -0.08453
   C        0.97988        -6.66275        -0.20302
   C        2.70832        -4.96221         0.52556
   S        4.03516        -6.05146         0.29334
   C        5.17091        -4.97152         1.02691
   C        4.52552        -3.79795         1.45116
   C        3.10884        -3.81128         1.20664
   C        2.32029        -2.71289         1.66468
   C        0.84007        -2.69191         1.73994
   O        0.17588        -1.69717         1.61400
   O        0.24623        -3.86014         2.07387
   C        2.96057        -1.60916         2.17602
   C        4.34606        -1.56869         2.34906
   C        5.12929        -2.65427         2.03506
   O        6.46726        -2.64830         2.26892
   C        6.53952        -5.28036         1.12290
   C        7.12937        -6.42241         0.67153
   C        8.51189        -6.67228         0.75137
   S        9.18441        -8.16828         0.12247
   C       10.84023        -7.74127         0.47673
   C       10.85624        -6.48360         1.10530
   C        9.55869        -5.89986         1.24045
   N        9.70511        -4.68363         1.82814
   C       11.04472        -4.48424         2.06187
   N       11.46381        -3.29406         2.66371
   O       10.58517        -2.48559         2.94551
   O       12.65260        -3.13305         2.87169
   C       11.78706        -5.56736         1.63069
   C       11.92609        -8.60431         0.27436
   S       13.35531        -8.35471         1.24279
   C       14.06333        -9.86396         0.77259
   C       13.22101       -10.53220        -0.13621
   C       12.04939        -9.78673        -0.48072
   C       11.19714       -10.27624        -1.50268
   C       10.21638        -9.46347        -2.24975
   O        9.20427        -9.88531        -2.74827
   O       10.62962        -8.19597        -2.43396
   C       11.40316       -11.55091        -1.98618
   C       12.47894       -12.32943        -1.56268
   C       13.41722       -11.82280        -0.69056
   O       14.51743       -12.53395        -0.35003
   C       15.31592       -10.27241         1.27004
   C       16.07280        -9.54608         2.13469
   C       17.34101        -9.93716         2.61938
   S       18.10012       -11.44152         2.13208
   C       19.48833       -11.09839         3.11950
   O       20.53491       -11.93514         3.19607
   C       19.36771        -9.90614         3.77802
   C       18.15866        -9.25678         3.49343
   H       -0.78777        -7.64239        -1.03488
   H       -0.00457        -2.63641        -1.04488
   H        1.52134        -7.50147         0.19640
   H        0.88736        -4.57475         2.18545
   H        2.35948        -0.76897         2.48756
   H        4.80395        -0.68486         2.77098
   H        6.72739        -1.80049         2.65454
   H        7.14308        -4.52239         1.58893
   H        6.52348        -7.19139         0.21098
   H        9.00384        -4.00077         2.07036
   H       12.85173        -5.65673         1.69310
   H        9.98337        -7.72111        -2.97996
   H       10.73320       -11.92746        -2.74352
   H       12.60972       -13.32328        -1.96813
   H       14.50219       -13.39035        -0.79734
   H       15.68543       -11.22589         0.92241
   H       15.70912        -8.59088         2.49285
   H       20.40301       -12.71131         2.63883
   H       20.12745        -9.52709         4.43519
   H       17.88356        -8.30700         3.91536
*
