# ORCA input file
# SCF done       -190.655570326499          0.000538739110
! CAM-B3LYP def2-SVP def2/J RIJCOSX Grid4 TightSCF
%maxcore 5000
%tddft
    Mode sTDDFT
    Ethresh 5.0
    maxcore 5000
end

%pal
  nprocs 6
  end
* xyz 0 1
   C       -6.80863         3.33990        -1.33253
   C       -6.18710         3.18509        -0.09824
   C       -4.96763         3.88117         0.20808
   N       -4.43532         3.76663         1.44612
   C       -5.00714         2.96517         2.29894
   C       -6.16802         2.22852         1.96920
   N       -6.75223         2.35571         0.81599
   C       -4.35123         4.70885        -0.76074
   C       -5.03154         4.89161        -1.98910
   C       -6.25236         4.19917        -2.27384
   N       -6.87156         4.36232        -3.47157
   C       -6.31667         5.15841        -4.33502
   C       -5.11911         5.85862        -4.04841
   N       -4.50090         5.72823        -2.91124
   C       -3.09441         5.38277        -0.58330
   C       -2.17948         5.10514         0.36503
   C       -0.91339         5.78643         0.53071
   C       -0.23822         6.30348        -0.58515
   C        1.01887         6.83356        -0.41919
   C        1.64353         6.83172         0.83692
   C        2.98724         7.43408         0.68200
   O        3.84870         7.61578         1.50588
   N        3.08821         7.76462        -0.66128
   C        1.95211         7.44000        -1.39301
   O        1.81715         7.63212        -2.57560
   C        4.24188         8.42517        -1.23212
   C        4.17302         9.93430        -1.02325
   C        1.00291         6.33590         1.94431
   C       -0.30776         5.84676         1.81244
   C       -1.01167         5.46312         3.01223
   C       -2.34258         5.60488         3.19102
   C       -3.07612         5.22712         4.34760
   N       -4.41718         5.54378         4.44468
   C       -4.89453         5.06000         5.61965
   C       -6.03126         4.96021         6.41986
   C       -5.63935         4.25440         7.55995
   N       -4.30098         3.92873         7.45943
   C       -3.82267         4.41193         6.28382
   C       -2.68476         4.51744         5.48600
   C       -6.38837         3.84069         8.69527
   C       -7.66491         4.18603         8.96574
   C       -8.40748         3.73779        10.11972
   C       -9.34056         4.62378        10.68392
   C       -9.97052         4.27484        11.85209
   C       -9.71008         3.04372        12.47190
   C      -10.52284         2.97208        13.70550
   O      -10.59489         2.09814        14.53302
   N      -11.22298         4.17128        13.75510
   C      -10.95592         5.00616        12.67967
   O      -11.44575         6.09529        12.51216
   C      -12.16089         4.50150        14.80585
   C      -13.54863         3.94673        14.50396
   C       -8.84488         2.13666        11.90926
   C       -8.19205         2.46649        10.71143
   C       -7.38011         1.48069        10.03136
   C       -6.68966         0.49515        10.63685
   C       -5.88034        -0.49304         9.98236
   C       -5.42825        -0.41400         8.64507
   C       -4.72896        -1.51260         8.04433
   N       -4.34455        -1.43381         6.74875
   C       -4.61824        -0.35384         6.07779
   C       -5.25194         0.74958         6.68566
   N       -5.62921         0.71716         7.93221
   C       -4.43375        -2.69585         8.75923
   C       -4.77833        -2.72316        10.12794
   C       -5.49656        -1.63631        10.72388
   N       -5.84893        -1.69211        12.02863
   C       -5.52799        -2.74835        12.71664
   C       -4.79186        -3.80565        12.13941
   N       -4.42278        -3.78128        10.89258
   C       -3.81122        -3.78550         8.04101
   C       -3.66623        -5.04276         8.45706
   H       -7.70666         2.79009        -1.56006
   H       -4.56122         2.90799         3.28342
   H       -6.62818         1.55553         2.68078
   H       -6.82011         5.27720        -5.28517
   H       -4.68102         6.54013        -4.76536
   H       -2.91298         6.16374        -1.30937
   H       -2.38227         4.30922         1.06718
   H       -0.68551         6.25584        -1.56553
   H        4.25542         8.18553        -2.29827
   H        5.13235         8.01697        -0.74674
   H        3.28161        10.33950        -1.49681
   H        5.04764        10.40738        -1.46059
   H        4.14531        10.16360         0.03958
   H        1.48387         6.35104         2.91067
   H       -0.40007         5.11545         3.83320
   H       -2.92965         6.06726         2.40835
   H       -4.93089         6.04397         3.74016
   H       -7.01359         5.33665         6.21950
   H       -3.79517         3.40460         8.15222
   H       -1.70314         4.13710         5.68298
   H       -5.85338         3.21207         9.39477
   H       -8.16333         4.90653         8.33198
   H       -9.53364         5.57910        10.21965
   H      -12.19311         5.59130        14.87996
   H      -11.77724         4.07572        15.73654
   H      -13.92417         4.36141        13.57115
   H      -14.23326         4.21016        15.30522
   H      -13.50772         2.86320        14.41941
   H       -8.69573         1.17069        12.36529
   H       -7.34434         1.55771         8.95425
   H       -6.71960         0.38672        11.71264
   H       -4.30085        -0.32723         5.04362
   H       -5.42123         1.67482         6.15038
   H       -5.82204        -2.76191        13.75753
   H       -4.48078        -4.66198        12.72299
   H       -3.47051        -3.50144         7.05399
   H       -4.02177        -5.37156         9.41654
   H       -3.17552        -5.77270         7.83517
*
