# ORCA input file
# SCF done       -184.713969237561          0.000706671379
! CAM-B3LYP def2-SVP def2/J RIJCOSX Grid4 TightSCF
%maxcore 5000
%tddft
    Mode sTDDFT
    Ethresh 5.0
    maxcore 5000
end

%pal
  nprocs 6
  end
* xyz 0 1
   C        1.51682        -0.85551         5.09480
   C        1.09088        -0.43866         3.83801
   C        0.94948         0.95605         3.54876
   N        0.53344         1.34679         2.32407
   C        0.26977         0.42654         1.44012
   C        0.41058        -0.95061         1.72887
   N        0.81047        -1.37135         2.89205
   C        1.23393         1.94957         4.52703
   C        1.67133         1.49896         5.80067
   C        1.80721         0.09500         6.06923
   N        2.22376        -0.33779         7.28658
   C        2.49307         0.55620         8.19091
   C        2.36530         1.93888         7.92919
   N        1.96845         2.38818         6.77236
   C        1.05633         3.31044         4.14286
   C        1.22615         4.42227         4.91022
   C        1.03036         5.74022         4.44008
   C        1.17395         6.88929         5.19602
   C        0.89745         8.02312         4.38699
   C        0.57602         7.47644         3.06578
   C        0.64644         6.13732         3.08138
   F        0.25462         8.23834         2.00966
   C        0.90813         9.35750         4.73947
   C        0.61867        10.48184         3.92641
   C        0.71163        11.63286         4.68917
   C        1.08479        11.24309         6.05174
   C        1.20150         9.90763         6.06757
   F        1.53219         9.15292         7.12379
   C        0.48327        12.97127         4.30848
   C        0.18146        13.37577         3.04020
   C       -0.08673        14.70618         2.66681
   S       -0.15750        15.97038         3.86364
   C       -0.59094        17.11891         2.66464
   C       -0.69674        16.59866         1.41347
   C       -1.02326        17.45641         0.23607
   C       -0.40009        15.19788         1.38446
   C       -0.33795        14.35773         0.23566
   C       -0.92093        14.54601        -0.97976
   C       -0.73287        13.64442        -2.04998
   C       -1.35030        13.77199        -3.26035
   C       -1.16568        12.90570        -4.35930
   C       -0.30751        11.82697        -4.48303
   C       -0.45412        11.25870        -5.77328
   C       -1.48122        12.06820        -6.43670
   C       -1.90115        13.04430        -5.61880
   F       -1.90853        11.84314        -7.68687
   C        0.22428        10.18676        -6.31920
   C        0.07388         9.60472        -7.60321
   C        0.97050         8.55900        -7.74246
   C        1.73889         8.45415        -6.49767
   C        1.28623         9.40906        -5.67220
   F        1.72816         9.65290        -4.42998
   C        1.10219         7.74562        -8.88708
   C        2.02959         6.75451        -9.01824
   C        2.21333         5.88557       -10.12754
   C        3.35358         5.03406       -10.12087
   C        3.67612         4.18497       -11.22700
   N        4.76493         3.38551       -11.15669
   C        5.51565         3.44077       -10.09483
   C        5.20976         4.29485        -9.01636
   N        4.15137         5.05470        -9.03190
   C        2.86583         4.16609       -12.38452
   C        1.68236         4.94282       -12.35679
   C        1.35048         5.78894       -11.25074
   N        0.19757         6.48898       -11.27097
   C       -0.56947         6.40932       -12.32143
   C       -0.22689         5.60180       -13.42435
   N        0.85757         4.88263       -13.42829
   C        3.15693         3.41996       -13.58613
   C        4.30562         2.82295       -13.90542
   H        1.62033        -1.90522         5.31485
   H       -0.06081         0.76730         0.46781
   H        0.19060        -1.70506         0.98508
   H        2.82393         0.19344         9.15510
   H        2.59562         2.67990         8.68337
   H        0.74248         3.42314         3.11429
   H        1.52716         4.31305         5.94165
   H        1.44880         6.92365         6.23207
   H        0.46119         5.47340         2.26081
   H        0.35605        10.42621         2.88920
   H        1.23449        11.92485         6.86633
   H        0.55097        13.71978         5.08860
   H        0.12989        12.62872         2.26219
   H       -0.73918        18.14086         2.95547
   H       -0.93128        18.50551         0.50799
   H       -2.04663        17.28353        -0.09600
   H       -0.34671        17.24586        -0.58992
   H        0.23970        13.45006         0.35665
   H       -1.57808        15.38254        -1.15701
   H       -0.05940        12.81417        -1.88906
   H       -2.04118        14.59415        -3.40435
   H        0.37153        11.46780        -3.73620
   H       -2.64011        13.79545        -5.82056
   H       -0.62738         9.92591        -8.34817
   H        2.51126         7.73963        -6.29415
   H        0.41769         7.93850        -9.69994
   H        2.74495         6.59293        -8.22359
   H        6.37306         2.78106       -10.06980
   H        5.82469         4.33217        -8.12710
   H       -1.49136         6.97483       -12.29435
   H       -0.86413         5.52901       -14.29577
   H        2.32848         3.40025       -14.28240
   H        5.16273         2.85054       -13.25752
   H        4.40412         2.28645       -14.83436
*
