# ORCA input file
# SCF done       -206.377313061668          0.000946067877
! CAM-B3LYP def2-SVP def2/J RIJCOSX Grid4 TightSCF
%maxcore 5000
%tddft
    Mode sTDDFT
    Ethresh 5.0
    maxcore 5000
end

%pal
  nprocs 6
  end
* xyz 0 1
   C       -3.09087         0.03570         5.77825
   C       -3.06544        -1.11194         6.52537
   C       -3.39597        -1.16117         7.89554
   N       -3.67706        -1.25217         9.00426
   C       -2.60296        -2.35232         6.03266
   N       -2.15613        -3.35852         5.70938
   C       -3.24291         1.39236         6.29824
   C       -2.74098         2.30031         5.34654
   C       -2.71522         3.65886         5.58799
   C       -3.21087         4.12361         6.80034
   C       -3.72350         3.22674         7.74578
   C       -3.73910         1.85708         7.50411
  Cl       -4.34486         3.81774         9.23212
  Cl       -3.19431         5.80652         7.13732
   C       -2.29928         1.56336         4.14111
   O       -1.77132         2.00546         3.14946
   C       -2.70399         0.15181         4.38854
   C       -2.74765        -0.74463         3.36405
   C       -3.45958        -1.96751         3.30236
   C       -3.19902        -3.00390         2.43430
   C       -4.13382        -4.05724         2.67259
   C       -5.02188        -3.54978         3.71740
   C       -4.63707        -2.32289         4.10253
   F       -6.07649        -4.22817         4.18055
   C       -4.20465        -5.28761         2.06274
   C       -5.11721        -6.34656         2.31656
   C       -4.85314        -7.39343         1.45508
   C       -3.71601        -7.01148         0.60633
   C       -3.34282        -5.77934         0.97701
   F       -2.34753        -5.06259         0.45075
   C       -5.57682        -8.60417         1.40813
   C       -5.37938        -9.58203         0.47792
   C       -6.08499       -10.79752         0.34164
   S       -5.91014       -11.65165        -1.16192
   C       -7.01912       -12.89515        -0.66717
   C       -7.48496       -12.64420         0.62922
   C       -6.95255       -11.48556         1.19729
   C       -7.24427       -11.07083         2.60568
   C       -7.83242       -12.23903         3.41134
   C       -6.81170       -13.23408         3.65559
   N       -6.00189       -14.02090         3.82752
   C       -8.99545       -12.87875         2.62408
   C       -9.97377       -11.86209         2.30659
   N      -10.73076       -11.04623         2.04923
   C       -8.46840       -13.52412         1.33345
   C       -7.31265       -13.94528        -1.56424
   C       -8.06533       -15.08951        -1.38416
   C       -8.07843       -15.83404        -2.59532
   C       -7.26419       -15.05891        -3.53775
   C       -6.80583       -13.94925        -2.94303
   F       -7.04053       -15.43404        -4.79765
   C       -8.72406       -17.02395        -2.85084
   C       -8.74388       -17.77506        -4.06045
   C       -9.53101       -18.89718        -3.87987
   C      -10.04254       -18.88028        -2.50514
   C       -9.55994       -17.77906        -1.91266
   F       -9.79048       -17.38590        -0.65272
   C       -9.84088       -19.92116        -4.80100
   C       -9.37940       -19.99355        -6.08522
   C       -9.74383       -21.05651        -6.93398
   C       -9.31649       -21.21604        -8.22620
   C       -9.66585       -22.29479        -9.12961
   C      -10.52861       -23.33253        -8.88835
   C      -10.82655       -24.34888        -9.82167
   N      -11.11240       -25.20715       -10.52789
   C      -11.25040       -23.54426        -7.69458
   N      -11.87860       -23.78767        -6.76476
   C       -8.93650       -22.07787       -10.37775
   C       -8.18010       -20.89845       -10.26613
   C       -8.38347       -20.30037        -8.92915
   O       -7.88196       -19.27899        -8.51377
   C       -7.38707       -20.44029       -11.29815
   C       -7.34401       -21.17852       -12.47419
   C       -8.09215       -22.35575       -12.59431
   C       -8.89113       -22.81234       -11.55183
  Cl       -8.02846       -23.26124       -14.05140
  Cl       -6.36887       -20.64461       -13.78168
   H       -2.31841         4.34117         4.85299
   H       -4.14241         1.19277         8.25129
   H       -2.22626        -0.44513         2.46031
   H       -2.38741        -3.04643         1.73471
   H       -5.12698        -1.68671         4.81339
   H       -5.89163        -6.32528         3.05782
   H       -3.26828        -7.61536        -0.15749
   H       -6.36119        -8.69822         2.14285
   H       -4.64128        -9.40729        -0.29350
   H       -7.96819       -10.24908         2.60826
   H       -6.32557       -10.72123         3.08418
   H       -8.18978       -11.87194         4.38092
   H       -9.48993       -13.64288         3.23567
   H       -9.30841       -13.73826         0.66733
   H       -7.98523       -14.47390         1.58423
   H       -8.54981       -15.41506        -0.48887
   H       -6.18959       -13.18315        -3.37156
   H       -8.22765       -17.49879        -4.95822
   H      -10.68363       -19.62701        -2.07897
   H      -10.49803       -20.70627        -4.44465
   H       -8.72052       -19.23200        -6.47242
   H      -10.41047       -21.79951        -6.51494
   H       -6.81578       -19.53184       -11.19010
   H       -9.45134       -23.72342       -11.68265
*
