# ORCA input file
# SCF done       -204.110477277378          0.000375872732
! CAM-B3LYP def2-SVP def2/J RIJCOSX Grid4 TightSCF
%maxcore 5000
%tddft
    Mode sTDDFT
    Ethresh 5.0
    maxcore 5000
end

%pal
  nprocs 6
  end
* xyz 0 1
   C       -3.54603        -1.98725         2.30682
   C       -4.26549        -1.47587         1.23047
   C       -5.39653        -0.53263         1.48855
   C       -3.93667        -1.83866        -0.08567
   C       -4.70908        -1.28491        -1.23926
   C       -2.88521        -2.72023        -0.31315
   C       -2.17734        -3.22186         0.75990
   C       -2.49633        -2.86173         2.07916
   C       -1.57536        -3.53512         2.98595
   C       -1.49879        -3.32521         4.33874
   C       -2.36091        -2.46612         5.05241
   N       -3.02989        -1.78920         5.69462
   C       -0.54436        -3.89161         5.20949
   N        0.20572        -4.29195         5.98225
   C       -0.71127        -4.38807         2.18535
   C       -1.04457        -4.16112         0.75381
   O       -0.54191        -4.67041        -0.22515
   C        0.13349        -5.32663         2.70885
   C        1.09522        -6.14459         2.08201
   C        1.67233        -6.11022         0.81799
   C        2.64738        -7.08435         0.66111
   C        2.82348        -7.88966         1.81214
   S        1.80131        -7.42116         3.08636
   C        3.82623        -8.84884         1.55217
   C        4.29456        -8.64984         0.23547
   C        3.57714        -7.53339        -0.36179
   C        3.76666        -7.00899        -1.60588
   C        4.71226        -7.54423        -2.50730
   N        5.47645        -7.96963        -3.24889
   C        3.06161        -5.88326        -2.08510
   N        2.52491        -4.95808        -2.49696
   C        5.30653        -9.53197        -0.11261
   C        5.61564       -10.40410         0.92567
   S        4.63131       -10.13432         2.35161
   C        6.62091       -11.40354         0.92733
   C        6.83058       -12.21508         2.06756
   C        7.87080       -13.19433         2.12816
   N        8.02527       -13.93073         3.24137
   C        7.22006       -13.73933         4.24985
   C        6.19659       -12.77260         4.19118
   N        6.02109       -12.04027         3.12591
   C        8.76741       -13.41310         1.05506
   C        8.54348       -12.62977        -0.09921
   C        7.48622       -11.64436        -0.16322
   N        7.46869       -11.02541        -1.34560
   S        8.63685       -11.60893        -2.27270
   N        9.23781       -12.67360        -1.23832
   C        9.82741       -14.34584         1.17719
   C       10.81251       -14.62000         0.23473
   C       11.72581       -15.55529         0.69773
   C       11.43067       -16.00979         2.00177
   S       10.02846       -15.27230         2.65340
   C       12.42655       -16.93879         2.38119
   C       13.35680       -17.06329         1.32614
   C       12.93701       -16.20892         0.22988
   C       13.54778       -16.07410        -0.98246
   C       14.72476       -16.78707        -1.29376
   N       15.68666       -17.36606        -1.52823
   C       13.05257       -15.21830        -1.98857
   N       12.66024       -14.51773        -2.80701
   C       14.37880       -17.95883         1.60544
   C       14.24201       -18.53833         2.85943
   S       12.82889       -17.92248         3.71074
   C       15.09096       -19.45896         3.51192
   C       16.06747       -20.24579         2.98416
   C       17.11599       -20.79282         3.89886
   O       17.06721       -20.82276         5.10713
   C       18.21128       -21.21574         3.01234
   C       17.81028       -21.08021         1.67089
   C       18.70223       -21.38013         0.65688
   C       19.98206       -21.82625         0.97524
   C       20.37034       -21.97986         2.31618
   C       19.47553       -21.66694         3.33432
   C       21.74108       -22.47152         2.65411
   C       20.94263       -22.14152        -0.12574
   C       16.42207       -20.63084         1.63357
   C       15.56895       -20.80316         0.57495
   C       14.18071       -20.57633         0.64060
   N       13.04234       -20.42695         0.66000
   C       15.96717       -21.32359        -0.67451
   N       16.23778       -21.74973        -1.70497
   H       -3.82228        -1.69681         3.30767
   H       -5.51487        -0.35391         2.55362
   H       -6.32927        -0.93742         1.09704
   H       -5.21894         0.42128         0.99312
   H       -5.76235        -1.55193        -1.15831
   H       -4.32415        -1.66918        -2.17973
   H       -4.64665        -0.19729        -1.25554
   H       -2.61283        -3.01443        -1.31569
   H        0.06502        -5.49341         3.77789
   H        1.37410        -5.40439         0.06457
   H        5.81973        -9.56844        -1.05580
   H        7.37619       -14.35405         5.12450
   H        5.52326       -12.60212         5.01875
   H       10.83194       -14.13691        -0.72489
   H       15.21397       -18.15328         0.95786
   H       15.01011       -19.49920         4.59414
   H       18.42562       -21.25838        -0.37857
   H       19.75750       -21.77298         4.37120
   H       22.49863       -21.80075         2.24986
   H       21.91180       -23.45731         2.22288
   H       21.87287       -22.53559         3.73067
   H       20.48573       -21.97156        -1.09651
   H       21.26100       -23.18181        -0.06863
   H       21.83414       -21.52025        -0.04534
*
