# ORCA input file
# SCF done       -194.242621412662          0.000736277356
! CAM-B3LYP def2-SVP def2/J RIJCOSX Grid4 TightSCF
%maxcore 5000
%tddft
    Mode sTDDFT
    Ethresh 5.0
    maxcore 5000
end

%pal
  nprocs 6
  end
* xyz 0 1
   C        3.13284         0.38018         2.45317
   C        2.33577         1.52030         2.49789
   C        2.87454         2.81096         1.97063
   C        1.03997         1.46307         3.03706
   C        0.19275         2.69306         3.09716
   C        0.54394         0.25465         3.51550
   C        1.33778        -0.87371         3.46480
   C        2.64328        -0.81776         2.94325
   C        3.26272        -2.13229         3.06956
   C        4.61299        -2.36385         3.08146
   C        5.58202        -1.37193         2.81982
   N        6.41329        -0.60629         2.62122
   C        5.20909        -3.58537         3.45121
   N        5.75482        -4.54245         3.77525
   C        2.21518        -3.05764         3.45717
   C        1.03404        -2.24950         3.88887
   O        0.03735        -2.67103         4.42895
   C        2.11403        -4.41181         3.42107
   C        2.94564        -5.32791         2.73239
   C        3.74051        -5.10200         1.62009
   C        4.42700        -6.24391         1.22467
   C        4.15583        -7.35674         2.04432
   S        3.02765        -7.00109         3.26699
   C        4.95416        -8.44181         1.60163
   C        5.72041        -8.01738         0.50119
   C        5.41728        -6.62166         0.23085
   C        5.97159        -5.81619        -0.72003
   C        6.94033        -6.27966        -1.63508
   N        7.72300        -6.64913        -2.38701
   C        5.60362        -4.45928        -0.83929
   N        5.29552        -3.35802        -0.92580
   C        6.56855        -9.01023         0.01451
   C        6.46377       -10.18227         0.74042
   S        5.28411       -10.05758         2.03730
   C        7.22268       -11.37832         0.55717
   C        7.14593       -12.46632         1.42805
   N        7.87414       -13.56711         1.36799
   C        8.77262       -13.73515         0.40829
   C        8.92759       -12.73331        -0.58696
   C        8.14871       -11.53167        -0.50832
   N        8.43395       -10.69876        -1.50890
   S        9.55991       -11.35952        -2.44256
   N        9.74949       -12.73675        -1.63256
   C        9.58881       -14.90448         0.42594
   C        9.58636       -15.89138         1.39843
   C       10.54707       -16.86394         1.14269
   C       11.27564       -16.61108        -0.03839
   S       10.77989       -15.17916        -0.82349
   C       12.24596       -17.63262        -0.19447
   C       12.13293       -18.52585         0.88880
   C       11.06658       -18.07109         1.76456
   C       10.67993       -18.64236         2.94106
   C       11.31353       -19.80121         3.43767
   N       11.83628       -20.74361         3.82995
   C        9.63584       -18.12009         3.73339
   N        8.78267       -17.70978         4.37988
   C       13.08514       -19.53739         0.85778
   C       13.92930       -19.42808        -0.23591
   S       13.49997       -18.06526        -1.26043
   C       15.01280       -20.26485        -0.59775
   C       15.73959       -21.08441         0.20548
   C       16.55182       -22.17722        -0.41261
   O       16.82727       -22.28840        -1.58492
   C       16.87662       -23.08522         0.69854
   C       16.42615       -22.52894         1.90978
   C       16.59430       -23.23171         3.08978
   C       17.22330       -24.47315         3.06852
   C       17.69012       -25.01469         1.85938
   C       17.50681       -24.31334         0.67208
   C       18.37946       -26.34091         1.84305
   C       17.40144       -25.22533         4.34774
   C       15.85675       -21.21232         1.64563
   C       15.72563       -20.21484         2.57530
   C       15.40614       -18.87812         2.26667
   N       15.18497       -17.76920         2.06668
   C       15.99395       -20.38416         3.95037
   N       16.20199       -20.46076         5.07613
   H        4.12087         0.44149         2.02505
   H        3.88363         2.68054         1.59013
   H        2.89454         3.56499         2.75679
   H        2.24404         3.19047         1.16726
   H        0.68176         3.46580         3.68944
   H       -0.77405         2.47397         3.54183
   H        0.03333         3.09729         2.09797
   H       -0.45116         0.18986         3.92958
   H        1.25920        -4.82816         3.94495
   H        3.78195        -4.15456         1.11386
   H        7.24352        -8.91019        -0.81580
   H        6.44961       -12.43559         2.25666
   H        8.91359       -15.86031         2.23545
   H       13.15154       -20.33995         1.56971
   H       15.26630       -20.30418        -1.65255
   H       16.23257       -22.83697         4.02608
   H       17.85404       -24.71587        -0.26773
   H       17.72303       -27.11840         2.23254
   H       19.26903       -26.31739         2.47164
   H       18.67497       -26.60945         0.83264
   H       16.98712       -24.66830         5.18327
   H       18.45847       -25.40562         4.54025
   H       16.90713       -26.19478         4.29435
*
