# ORCA input file
# SCF done       -196.387550195351          0.000686502319
! CAM-B3LYP def2-SVP def2/J RIJCOSX Grid4 TightSCF
%maxcore 5000
%tddft
    Mode sTDDFT
    Ethresh 5.0
    maxcore 5000
end

%pal
  nprocs 6
  end
* xyz 0 1
   C       -3.78483         3.43457         3.60717
   C       -2.74152         2.53190         3.31915
   C       -1.43976         2.84913         3.79155
   C       -1.24142         3.99847         4.58513
   C       -2.29984         4.83154         4.87936
   C       -3.56879         4.55343         4.37075
   C        0.09849         4.33248         5.10313
   O        0.30284         5.30205         5.80470
   N        1.12557         3.47532         4.74874
   C        2.46343         3.76871         5.23439
   C        1.00566         2.34483         3.95802
   O        1.98070         1.66787         3.70465
   C       -0.34241         2.02921         3.46047
   C       -0.52924         0.92349         2.65584
   C       -1.80111         0.58739         2.20876
   C       -2.91288         1.34744         2.54137
   C       -4.20686         0.87114         2.09445
   C       -4.46860         0.24656         0.89464
   C       -5.79082        -0.19945         0.80334
   C       -6.53661         0.07455         1.96121
   S       -5.61677         0.89000         3.14389
   C       -7.85138        -0.42703         1.79106
   C       -7.93330        -1.02513         0.51786
   C       -6.64535        -0.89026        -0.14792
   C       -6.30907        -1.31457        -1.39931
   C       -7.22662        -1.95767        -2.25795
   N       -7.95994        -2.47210        -2.97318
   C       -5.01276        -1.12946        -1.92501
   N       -3.95752        -0.98270        -2.34917
   C       -9.18095        -1.57982         0.26204
   C      -10.05817        -1.40638         1.32539
   S       -9.31721        -0.52680         2.65777
   C      -11.40358        -1.84996         1.45366
   C      -12.07770        -2.66277         0.51108
   C      -13.43078        -3.09562         0.72636
   N      -14.03228        -3.87680        -0.19393
   C      -13.38894        -4.23365        -1.25693
   C      -12.04922        -3.81345        -1.46543
   N      -11.43882        -3.06151        -0.60915
   F      -11.38192        -4.18787        -2.55015
   F      -14.01960        -5.00299        -2.13831
   C      -14.18617        -2.75247         1.87013
   C      -13.52030        -1.92923         2.80706
   C      -12.16099        -1.50047         2.59493
   N      -11.72111        -0.74380         3.60127
   S      -12.88601        -0.58340         4.69581
   N      -14.00348        -1.46136         3.95901
   C      -15.51080        -3.22476         2.06322
   C      -16.34016        -2.94425         3.14284
   C      -17.56417        -3.58972         3.04023
   C      -17.67296        -4.37128         1.87164
   S      -16.26909        -4.29907         0.90035
   C      -18.94596        -4.99517         1.87931
   C      -19.63676        -4.61149         3.04059
   C      -18.79328        -3.71139         3.80833
   C      -19.09007        -3.11058         4.99676
   C      -20.32784        -3.31217         5.64233
   N      -21.33775        -3.48101         6.15917
   C      -18.18405        -2.25307         5.65573
   N      -17.45530        -1.55475         6.19976
   C      -20.90183        -5.19587         3.13896
   C      -21.18369        -6.02049         2.07019
   S      -19.85650        -6.06847         0.91721
   C      -22.37710        -6.79842         1.83602
   C      -22.50614        -7.57206         0.66596
   C      -23.62616        -8.32508         0.42321
   C      -24.67620        -8.33955         1.34711
   C      -24.57023        -7.57146         2.52656
   C      -23.42115        -6.81160         2.75294
   C      -25.65820        -7.61124         3.44617
   C      -26.76329        -8.36317         3.20100
   C      -26.89584        -9.17133         1.98073
   O      -27.83937        -9.86788         1.68300
   N      -25.80093        -9.07938         1.13682
   C      -27.83278        -8.39241         4.12442
   N      -28.68533        -8.39871         4.88956
   H       -4.76922         3.25907         3.20301
   H       -2.12088         5.70444         5.48848
   H       -4.38410         5.23026         4.57562
   H        2.41584         4.67766         5.82853
   H        3.13807         3.90066         4.38875
   H        2.82354         2.93671         5.83926
   H        0.32480         0.31463         2.40121
   H       -1.93138        -0.30649         1.61820
   H       -3.73655         0.15027         0.11365
   H       -9.46645        -2.09186        -0.63718
   H      -16.03176        -2.30191         3.94674
   H      -21.57770        -5.02312         3.95539
   H      -21.70238        -7.56997        -0.05524
   H      -23.70515        -8.91150        -0.47997
   H      -23.36243        -6.23496         3.66204
   H      -25.59168        -7.02801         4.35437
   H      -25.86776        -9.62833         0.28665
*
