# ORCA input file
# SCF done       -210.106307520448          0.000924000428
! CAM-B3LYP def2-SVP def2/J RIJCOSX Grid4 TightSCF
%maxcore 5000
%tddft
    Mode sTDDFT
    Ethresh 5.0
    maxcore 5000
end

%pal
  nprocs 6
  end
* xyz 0 1
   C        2.56269         0.26832         4.11382
   C        3.55149         0.79662         3.33226
   F        4.29927         1.80978         3.78644
   C        3.79790         0.28393         2.04224
   F        4.77448         0.82054         1.29989
   C        3.05138        -0.75054         1.55171
   C        2.02620        -1.31749         2.33359
   C        1.77511        -0.79926         3.63762
   C        0.75072        -1.35132         4.43997
   C        0.00219        -2.39070         3.95291
   C        0.26527        -2.90666         2.65399
   C        1.24559        -2.39273         1.85475
   C       -0.65041        -4.02768         2.36774
   O       -0.67563        -4.68886         1.35357
   C       -1.45109        -4.20942         3.60673
   C       -1.09860        -3.14924         4.53570
   C       -1.74137        -2.85053         5.70778
   C       -2.87504        -3.52908         6.20442
   N       -3.80814        -4.02226         6.65648
   C       -1.37387        -1.78548         6.55762
   N       -1.11664        -0.94023         7.28995
   C       -2.21961        -5.29301         3.92552
   C       -2.69178        -6.32389         3.08427
   C       -2.87818        -6.37389         1.70938
   C       -3.40155        -7.59380         1.29921
   C       -3.61431        -8.49300         2.36538
   S       -3.21212        -7.81816         3.87097
   C       -4.09475        -9.71896         1.83534
   C       -4.19520        -9.58736         0.43565
   C       -3.78523        -8.24523         0.05568
   C       -3.78645        -7.70737        -1.19688
   C       -4.19253        -8.44975        -2.32728
   N       -4.52809        -9.05137        -3.24349
   C       -3.41517        -6.36911        -1.45387
   N       -3.14248        -5.27986        -1.68261
   C       -4.64108       -10.75634        -0.17899
   C       -4.86940       -11.75266         0.74781
   S       -4.54814       -11.26708         2.38931
   C       -5.29663       -13.09641         0.48468
   N       -5.51307       -13.44107        -0.78039
   C       -5.86723       -14.70937        -0.97506
   N       -6.02365       -15.61034         0.00049
   C       -5.80237       -15.15251         1.21640
   N       -5.43609       -13.92454         1.52589
   C       -6.08165       -15.11228        -2.33417
   C       -6.38503       -16.36844        -2.81635
   C       -6.49621       -16.36018        -4.20675
   C       -6.27858       -15.08110        -4.75773
   S       -5.92950       -13.90133        -3.57977
   C       -6.40852       -15.17461        -6.16752
   C       -6.70694       -16.50773        -6.50738
   C       -6.77030       -17.29623        -5.28508
   C       -7.03093       -18.62983        -5.17826
   C       -7.28986       -19.43748        -6.30688
   N       -7.50966       -20.09199        -7.22171
   C       -7.06590       -19.29529        -3.93347
   N       -7.09960       -19.84546        -2.92871
   C       -6.86451       -16.69007        -7.87709
   C       -6.65710       -15.51806        -8.59081
   S       -6.30838       -14.15901        -7.52644
   C       -6.81297       -15.37800        -9.99015
   C       -6.42550       -14.37141       -10.81752
   C       -7.11188       -14.20978       -12.13280
   O       -7.81394       -15.02188       -12.68555
   C       -6.80047       -12.83050       -12.55897
   C       -7.28971       -12.13091       -13.62435
   C       -6.87286       -10.79490       -13.81791
   C       -5.95834       -10.20546       -12.89669
   C       -5.55753        -8.86818       -13.08995
   C       -6.03798        -8.15138       -14.14971
   C       -6.93931        -8.73642       -15.06226
   C       -7.34862       -10.03036       -14.90110
   F       -7.39401        -8.00996       -16.09105
   F       -5.65626        -6.88147       -14.33192
   C       -5.45962       -10.95770       -11.80865
   C       -5.86987       -12.25364       -11.64758
   C       -5.50315       -13.26578       -10.66132
   C       -4.33572       -13.28429        -9.94567
   C       -3.89019       -14.41532        -9.23085
   N       -3.48950       -15.33677        -8.67600
   C       -3.41254       -12.21857        -9.92995
   N       -2.64302       -11.36930        -9.87838
   H        2.38645         0.67378         5.09789
   H        3.25209        -1.13183         0.56279
   H        0.58967        -0.94225         5.42424
   H        1.42151        -2.80222         0.87172
   H       -2.48365        -5.42128         4.96914
   H       -2.64134        -5.55538         1.05614
   H       -4.79337       -10.90614        -1.23202
   H       -5.92960       -15.84938         2.03507
   H       -6.50760       -17.21820        -2.17012
   H       -7.09401       -17.62466        -8.35633
   H       -7.40759       -16.15463       -10.46342
   H       -7.98617       -12.58955       -14.30949
   H       -4.86537        -8.40642       -12.40342
   H       -8.03912       -10.46326       -15.60775
   H       -4.77455       -10.48764       -11.12104
*
