# ORCA input file
# SCF done       -198.219377015610          0.000804943517
! CAM-B3LYP def2-SVP def2/J RIJCOSX Grid4 TightSCF
%maxcore 5000
%tddft
    Mode sTDDFT
    Ethresh 5.0
    maxcore 5000
end

%pal
  nprocs 6
  end
* xyz 0 1
   C       -0.58751         0.66518         0.29806
   C        0.13976         1.39539        -0.60618
   C        0.66580         0.86205        -1.80179
   N        1.12379         0.47634        -2.78073
   C        0.53269         2.73139        -0.40139
   N        0.88995         3.81377        -0.26142
   C       -0.79690        -0.77800         0.22639
   C       -1.11971        -1.25580         1.53025
   C       -1.32900        -2.58194         1.77730
   C       -1.23850        -3.50366         0.71009
   C       -0.94110        -3.02894        -0.60032
   C       -0.71944        -1.65044        -0.82513
   C       -0.86717        -3.95775        -1.65799
   C       -1.07152        -5.29209        -1.43356
   C       -1.36067        -5.75891        -0.14264
   C       -1.44235        -4.88375         0.90630
   C       -1.19703        -0.11654         2.45862
   O       -1.39504        -0.13123         3.65187
   C       -1.03771         1.09859         1.60410
   C       -1.40024         2.30162         2.12680
   C       -1.69784         3.51654         1.47106
   C       -2.01303         3.74973         0.14007
   C       -2.27433         5.09133        -0.10951
   C       -2.16975         5.89485         1.04158
   S       -1.76561         4.99490         2.42474
   C       -2.43846         7.24161         0.67707
   C       -2.70088         7.28441        -0.70498
   C       -2.59798         5.94041        -1.24568
   C       -2.74400         5.54703        -2.54386
   C       -3.04596         6.45960        -3.57616
   N       -3.29720         7.20081        -4.41415
   C       -2.60373         4.19532        -2.92311
   N       -2.49828         3.09161        -3.21628
   C       -2.98436         8.57618        -1.15568
   C       -2.94085         9.48679        -0.12415
   S       -2.54410         8.77516         1.41557
   C       -3.19864        10.90365        -0.16582
   N       -3.14346        11.54125         1.00625
   C       -3.39870        12.83670         0.99075
   C       -3.71063        13.51320        -0.17577
   C       -3.73187        12.76222        -1.36094
   N       -3.47355        11.45302        -1.34060
   C       -4.02937        13.38351        -2.63050
   C       -3.97769        12.71101        -3.79749
   C       -4.24954        13.27692        -5.07477
   C       -4.68666        14.55435        -5.38307
   C       -4.82749        14.74429        -6.75545
   C       -4.49041        13.60033        -7.50334
   S       -4.01402        12.29692        -6.51162
   C       -4.64818        13.90061        -8.87969
   C       -5.09455        15.23570        -8.99969
   C       -5.21387        15.80872        -7.66904
   C       -5.58942        17.07631        -7.33628
   C       -5.91088        18.06702        -8.29007
   N       -6.16078        18.90172        -9.03444
   C       -5.66383        17.49794        -5.99136
   N       -5.72599        17.84082        -4.89884
   C       -5.28986        15.63190       -10.31560
   C       -4.99254        14.61807       -11.21732
   S       -4.45303        13.14825       -10.38947
   C       -4.97810        14.57481       -12.62675
   C       -5.45796        15.46224       -13.54994
   C       -5.25466        15.33078       -14.98460
   C       -4.37285        14.49179       -15.61658
   C       -4.20786        14.43168       -17.01672
   N       -4.02700        14.32601       -18.14545
   C       -3.48084        13.59982       -14.98512
   N       -2.71042        12.86667       -14.55069
   C       -6.09411        16.31951       -15.64999
   C       -6.75460        17.09208       -14.65432
   C       -6.37446        16.60888       -13.31763
   O       -6.78218        17.04475       -12.26168
   C       -7.60297        18.11308       -14.97217
   C       -7.83573        18.41436       -16.33235
   C       -7.18518        17.64140       -17.33727
   C       -6.31195        16.58983       -16.97549
   C       -7.42752        17.94834       -18.69175
   C       -8.26966        18.96970       -19.03834
   C       -8.90878        19.73038       -18.04785
   C       -8.69619        19.45879       -16.72347
   H       -1.56307        -2.92429         2.77438
   H       -0.50670        -1.31590        -1.82845
   H       -0.64091        -3.59402        -2.64942
   H       -1.01085        -5.99588        -2.25009
   H       -1.51896        -6.81506         0.01657
   H       -1.66527        -5.23705         1.90249
   H       -1.54238         2.29867         3.20385
   H       -2.09091         2.96587        -0.59092
   H       -3.21550         8.85830        -2.16591
   H       -3.35087        13.33854         1.94859
   H       -3.92254        14.56961        -0.17921
   H       -4.28601        14.43215        -2.59707
   H       -3.69828        11.66666        -3.77055
   H       -4.89413        15.30141        -4.64002
   H       -5.63857        16.59977       -10.62634
   H       -4.50845        13.67993       -13.01879
   H       -8.08712        18.68407       -14.19391
   H       -5.84023        16.02161       -17.76113
   H       -6.93207        17.36120       -19.45103
   H       -8.44777        19.19754       -20.07858
   H       -9.57024        20.53244       -18.33945
   H       -9.18486        20.04077       -15.95584
*
