# ORCA input file
# SCF done       -200.205321264396          0.000785851652
! CAM-B3LYP def2-SVP def2/J RIJCOSX Grid4 TightSCF
%maxcore 5000
%tddft
    Mode sTDDFT
    Ethresh 5.0
    maxcore 5000
end

%pal
  nprocs 6
  end
* xyz 0 1
   C        3.18073         0.73991         0.11960
   C        2.48519         0.04421        -0.83565
   C        3.04803        -0.97489        -1.63313
   N        3.43917        -1.80939        -2.31788
   C        1.11654         0.19231        -1.14584
   N        0.01029         0.22531        -1.45402
   C        4.56773         0.48741         0.49105
   C        4.87954         1.28258         1.62880
   C        6.11021         1.25069         2.21856
   C        7.10957         0.40934         1.68073
   C        6.80928        -0.38278         0.53526
   C        5.52333        -0.33154        -0.05010
   C        7.81503        -1.21467         0.00255
   C        9.05757        -1.26448         0.57347
   C        9.35173        -0.48506         1.70217
   C        8.39849         0.33391         2.24403
   C        3.70565         2.08763         2.00741
   O        3.63906         2.83574         2.96103
   C        2.66958         1.79228         0.98591
   C        1.48006         2.43198         0.76825
   C        0.82042         3.45278         1.48173
   C        1.06973         4.08605         2.68754
   C        0.11301         5.04150         3.00416
  Cl        0.18401         5.96851         4.44013
   C       -0.90975         5.18532         2.06041
   S       -0.64568         4.07542         0.75416
   C       -2.00770         6.07125         2.09324
   C       -3.00816         6.21895         1.13381
  Cl       -3.07905         5.29709        -0.30977
   C       -3.95399         7.18811         1.44379
   C       -3.70797         7.80993         2.65500
   S       -2.28449         7.18180         3.42048
   C       -4.46597         8.84395         3.26184
   C       -4.07881         9.36486         4.51977
   C       -4.78154        10.41817         5.19296
   N       -4.33157        10.84131         6.39141
   C       -3.26958        10.28413         6.90308
   C       -2.57532         9.25265         6.23895
   N       -2.98572         8.81960         5.08137
   C       -5.92904        11.01563         4.60943
   C       -6.31737        10.49182         3.35816
   C       -5.61365         9.42578         2.68712
   N       -6.18727         9.12013         1.52045
   S       -7.46337        10.06249         1.29247
   N       -7.36703        10.91139         2.64952
   C       -6.66862        12.08263         5.19035
   C       -6.46775        12.71853         6.40259
   C       -7.37873        13.74155         6.63543
  Cl       -7.35180        14.69035         8.06181
   C       -8.30689        13.92836         5.61131
   S       -8.02011        12.77097         4.33906
   C       -9.33476        14.89415         5.53866
   C      -10.25928        15.09452         4.50854
  Cl      -10.30462        14.11705         3.10371
   C      -11.13965        16.14916         4.71323
   C      -10.92626        16.80465         5.91368
   S       -9.60402        16.06231         6.79040
   C      -11.55284        17.89746         6.54618
   C      -12.52907        18.75638         6.12139
   C      -13.05379        19.83910         6.94137
   C      -12.88036        20.01469         8.29015
   C      -13.43558        21.08572         9.02238
   N      -13.84871        21.93232         9.67885
   C      -12.17481        19.15769         9.16144
   N      -11.64082        18.51551         9.95059
   C      -13.87295        20.69155         6.08817
   C      -13.94200        20.10008         4.79616
   C      -13.15008        18.85869         4.77660
   O      -13.04342        18.10333         3.83247
   C      -14.65363        20.66606         3.77793
   C      -15.33834        21.88000         4.00858
   C      -15.26691        22.48458         5.29668
   C      -14.52477        21.87157         6.33226
   C      -15.94941        23.69860         5.51542
   C      -16.66987        24.28744         4.51207
   C      -16.74038        23.69059         3.24443
   C      -16.08879        22.51254         2.99805
   H        6.31881         1.86181         3.08421
   H        5.33079        -0.94041        -0.91884
   H        7.58311        -1.81394        -0.86568
   H        9.82096        -1.90539         0.15841
   H       10.33749        -0.53658         2.13988
   H        8.61935         0.93659         3.11290
   H        0.93637         2.13258        -0.12081
   H        1.91965         3.86120         3.30576
   H       -4.79115         7.43902         0.81977
   H       -2.94619        10.65376         7.86644
   H       -1.69312         8.78812         6.65496
   H       -5.68362        12.44023         7.08025
   H      -11.90353        16.43617         4.01384
   H      -11.15495        18.08413         7.53733
   H      -14.69182        20.19344         2.80762
   H      -14.48796        22.35821         7.29364
   H      -15.89331        24.15335         6.49357
   H      -17.18981        25.21690         4.68981
   H      -17.31309        24.16918         2.46411
   H      -16.13909        22.04850         2.02385
*
