# ORCA input file
# SCF done       -212.417311992348          0.000736688814
! CAM-B3LYP def2-SVP def2/J RIJCOSX Grid4 TightSCF
%maxcore 5000
%tddft
    Mode sTDDFT
    Ethresh 5.0
    maxcore 5000
end

%pal
  nprocs 6
  end
* xyz 0 1
   C       10.43505        -2.36113        10.33406
   C        9.73317        -2.22239        11.49940
   F       10.36260        -2.39068        12.67535
   C        8.36708        -1.90912        11.52158
   C        7.70910        -1.73514        10.33596
   C        8.38349        -1.86761         9.10481
   C        9.77262        -2.18913         9.10333
   C       10.46747        -2.34126         7.88028
   C        9.79261        -2.17571         6.70178
   C        8.40848        -1.83500         6.70948
   C        7.71273        -1.68751         7.87460
   C        7.93769        -1.68079         5.32168
   O        6.81711        -1.44543         4.93066
   C        9.15823        -1.81923         4.47767
   C       10.22428        -2.31915         5.31377
   C       11.30383        -3.05463         4.89521
   C       11.50819        -3.42352         3.55144
   N       11.67648        -3.77199         2.47009
   C       12.26251        -3.61087         5.76558
   N       13.08023        -4.07367         6.42477
   C        9.09985        -1.41467         3.17612
   C       10.12180        -1.05107         2.28053
   S       11.70806        -0.55988         2.77104
   C       12.19201        -0.13445         1.16968
   C       11.16768        -0.42614         0.24977
   C        9.98447        -0.91097         0.88569
   C        8.85362        -1.24531         0.12003
   C        8.91398        -1.11485        -1.23837
   F        7.84863        -1.41844        -1.99003
   C       10.10091        -0.68918        -1.87477
   F       10.13559        -0.62451        -3.21458
   C       11.21271        -0.35494        -1.15576
   C       13.47605         0.44679         0.99581
   C       13.88850         1.19781        -0.05209
   C       15.21053         1.73222        -0.13430
   C       15.71065         2.49230        -1.12587
   C       14.98488         2.93423        -2.35225
   C       17.16035         2.93367        -1.04431
   N       18.04581         1.79670        -1.09699
   C       18.76617         1.34166        -0.08021
   C       19.60157         0.25205        -0.17799
   C       20.38217        -0.24383         0.86507
   C       21.55363        -1.00062         0.76246
   N       22.12145        -1.53923        -0.39322
   O       21.49369        -1.47063        -1.44409
   O       23.22355        -2.05512        -0.29630
   C       22.18115        -1.04623         2.04181
   C       21.43225        -0.33619         2.94381
   C       20.25925         0.12517         2.30247
   C       19.11487         0.63508         2.90263
   C       17.76842         0.29590         2.54064
   C       16.92797         0.74452         3.51581
   C       17.69512         1.45369         4.49002
   N       17.11185         2.12245         5.57914
   O       17.83436         2.74849         6.33624
   O       15.90083         2.03484         5.70243
   C       19.04631         1.41236         4.13574
   C       20.12835         2.13410         4.69833
   C       21.21862         2.48024         3.95674
   C       22.37530         3.10463         4.46461
   C       23.49055         3.31863         3.69787
   C       24.75150         3.89852         4.12420
   C       25.02632         4.47063         5.33927
   C       26.27316         5.03490         5.68346
   N       27.26059         5.51208         6.02243
   C       24.11815         4.59852         6.41186
   N       23.44325         4.74488         7.32877
   C       25.69088         3.78811         3.01318
   C       25.02586         3.19686         1.91094
   C       23.62756         2.91471         2.27334
   O       22.77863         2.45485         1.53350
   C       25.64908         2.94820         0.71154
   C       26.99574         3.30363         0.59117
   C       27.65283         3.89866         1.69576
   C       27.02240         4.14647         2.90907
   S       29.31126         4.26248         1.33111
   C       29.10363         3.61965        -0.27698
   C       27.85671         3.15507        -0.52990
  Br       30.55026         3.62707        -1.46903
   H       11.48554        -2.60552        10.35523
   H        7.86599        -1.81227        12.47163
   H        6.65703        -1.49298        10.32729
   H       11.51985        -2.57644         7.90641
   H        6.66219        -1.43886         7.85860
   H        8.08841        -1.27010         2.80613
   H        7.95167        -1.61289         0.58066
   H       12.11312        -0.08568        -1.68012
   H       14.16022         0.29871         1.82203
   H       13.19696         1.43721        -0.84245
   H       15.86177         1.48684         0.69664
   H       13.94756         2.61977        -2.35675
   H       15.47051         2.53331        -3.24275
   H       15.01397         4.02153        -2.42600
   H       17.34450         3.46785        -0.10866
   H       17.39280         3.60245        -1.87815
   H       18.03038         1.24841        -1.94808
   H       18.71636         1.92005         0.83258
   H       19.76062        -0.19639        -1.15055
   H       23.09942        -1.56961         2.23378
   H       21.63518        -0.23462         3.99227
   H       17.50923        -0.33357         1.71011
   H       15.86568         0.60860         3.58834
   H       20.03386         2.45839         5.72707
   H       21.22274         2.25134         2.90154
   H       22.38211         3.37634         5.51205
   H       25.11430         2.49036        -0.10578
   H       27.56989         4.59712         3.71967
   H       27.55502         2.72364        -1.46681
*
