# ORCA input file
# SCF done       -157.445616430436          0.001967367127
! CAM-B3LYP def2-SVP def2/J RIJCOSX Grid4 TightSCF
%maxcore 5000
%tddft
    Mode sTDDFT
    Ethresh 5.0
    maxcore 5000
end

%pal
  nprocs 6
  end
* xyz 0 1
   C       -2.54567        -1.37448         2.49757
   C       -2.75539        -2.57253         1.85296
   C       -1.72295        -3.39378         1.36019
   N       -0.92546        -4.10390         0.93731
   C       -4.01061        -3.17120         1.62961
   N       -4.98964        -3.73840         1.42708
   C       -1.23664        -0.80431         2.81087
   C       -1.42700         0.36833         3.58198
   C       -0.38227         1.12956         4.04356
   C        0.91680         0.71675         3.72578
   C        1.09717        -0.45196         2.95052
   C        0.03858        -1.22420         2.48562
   S        2.78098        -0.77881         2.66926
   C        3.21284         0.63920         3.58743
   C        2.15333         1.32414         4.07867
  Br        5.02243         1.08203         3.81015
   C       -2.87569         0.59843         3.76902
   O       -3.38365         1.50822         4.39550
   C       -3.54799        -0.49082         3.03457
   C       -4.91292        -0.59029         2.85544
   C       -5.85868         0.26021         3.41924
   C       -7.21348         0.14132         3.17719
   C       -8.24541         0.92754         3.73905
   C       -9.49862         0.58857         3.32031
   C       -9.51560        -0.47821         2.39655
   S       -7.89040        -1.05059         2.08910
   C      -10.60941        -1.05298         1.77556
   C      -11.97785        -0.75164         1.96760
   C      -12.81427        -1.53007         1.23216
   C      -12.16017        -2.51181         0.43598
   S      -10.42206        -2.33149         0.60151
   C      -12.82741        -3.40224        -0.36190
   C      -12.38726        -4.48831        -1.14956
   S      -13.52013        -4.94359        -2.42157
   C      -12.44659        -6.12645        -3.03871
   C      -11.31451        -6.21755        -2.29969
   C      -11.27222        -5.31930        -1.20399
   S       -9.84892        -5.47710        -0.18169
   C      -10.31347        -5.13852         1.46606
   C      -11.56439        -5.08169         1.92237
   N      -11.88484        -4.65908         3.20282
   C      -13.04823        -4.01969         3.50527
   S      -13.01719        -2.70241         4.63726
   C      -14.68891        -2.37749         4.28795
   N      -15.28475        -1.30475         4.94434
   O      -16.45481        -1.06351         4.70073
   O      -14.57440        -0.66589         5.70775
   C      -15.22319        -3.24048         3.36551
   C      -14.30396        -4.20210         2.91778
   C      -14.60420        -5.28940         2.00980
   C      -15.46850        -5.20607         0.98492
   C      -15.72250        -6.24113         0.03166
   S      -17.12509        -6.09699        -0.99288
   C      -16.76315        -7.57433        -1.78220
   C      -15.63245        -8.15131        -1.30436
   C      -15.01886        -7.38870        -0.28290
   S      -13.51038        -7.85888         0.49990
   C      -12.65643        -8.69619        -0.79318
   C      -11.54118        -9.37116        -0.57643
   H       -0.55961         2.01680         4.63110
   H        0.22976        -2.10531         1.89627
   H        2.23799         2.22051         4.66571
   H       -5.28967        -1.38373         2.22082
   H       -5.52804         1.04825         4.08030
   H       -8.02821         1.71510         4.43831
   H      -10.39954         1.07502         3.64789
   H      -12.30188         0.01434         2.64838
   H      -13.88721        -1.45373         1.24700
   H      -13.89080        -3.20995        -0.44977
   H      -12.72128        -6.69157        -3.90729
   H      -10.51753        -6.91106        -2.49685
   H       -9.44827        -4.94782         2.08192
   H      -12.40458        -5.29277         1.28538
   H      -11.09217        -4.42870         3.78985
   H      -16.25197        -3.18976         3.05807
   H      -14.08444        -6.21478         2.20508
   H      -16.02784        -4.29330         0.82709
   H      -17.41589        -7.94088        -2.54907
   H      -15.25840        -9.09695        -1.65337
   H      -13.09082        -8.57245        -1.77144
   H      -11.11638        -9.46655         0.40722
   H      -11.01596        -9.84642        -1.38619
*
