# ORCA input file
# SCF done       -167.102627999324          0.000729361812
! CAM-B3LYP def2-SVP def2/J RIJCOSX Grid4 TightSCF
%maxcore 5000
%tddft
    Mode sTDDFT
    Ethresh 5.0
    maxcore 5000
end

%pal
  nprocs 6
  end
* xyz 0 1
   C       -4.76588        -0.08924         5.92662
   C       -4.69357        -1.37498         5.41369
   C       -3.70333        -2.30224         5.73920
   N       -2.93614        -3.14991         5.89441
   C       -5.56330        -1.98085         4.49167
   N       -6.19285        -2.62057         3.76866
   C       -3.87383         0.43129         6.96016
   C       -4.22592         1.77732         7.22045
   C       -3.58183         2.54014         8.16002
   C       -2.53690         1.94519         8.88052
   C       -2.19447         0.60078         8.61433
   C       -2.85016        -0.17210         7.66195
   S       -0.88179         0.06281         9.61869
   C       -0.81308         1.63205        10.37501
   C       -1.72467         2.51351         9.89964
  Br        0.45423         1.95685        11.72075
   C       -5.35976         2.15409         6.34167
   O       -5.90180         3.24113         6.29784
   C       -5.67069         0.94596         5.55815
   C       -6.67147         0.85797         4.59615
   C       -7.48989         1.89627         4.19938
   C       -8.46801         1.75201         3.22142
   C       -9.30896         2.75019         2.69851
   C      -10.16535         2.30965         1.72228
   C      -10.03918         0.93976         1.44450
   S       -8.79983         0.22213         2.45093
   C      -10.73343         0.15918         0.52933
   C      -11.72189         0.52998        -0.40234
   C      -12.18400        -0.50170        -1.17067
   C      -11.58521        -1.74720        -0.87842
   S      -10.40465        -1.54862         0.42076
   C      -11.80293        -2.97125        -1.45295
   N      -11.14060        -4.06682        -1.02143
   C      -11.16962        -5.32882        -1.50853
   S      -12.07078        -5.75799        -2.92556
   C      -11.44683        -7.37465        -2.79974
   N      -11.86980        -8.29258        -3.75993
   O      -11.43743        -9.43000        -3.69294
   O      -12.64999        -7.87684        -4.60447
   C      -10.60237        -7.55888        -1.73461
   C      -10.43368        -6.39531        -0.96672
   C       -9.65424        -6.27352         0.23914
   C       -8.65632        -7.09280         0.61740
   C       -7.95605        -6.90726         1.85578
   C       -6.85263        -7.54815         2.27177
   C       -6.09002        -8.56877         1.49665
   C       -6.26330        -7.19943         3.62003
   N       -5.55552        -5.93970         3.53920
   C       -4.47106        -5.60985         4.28506
   C       -3.70927        -6.42260         5.04749
   N       -2.62381        -5.92978         5.73856
   C       -1.73602        -6.66639         6.41316
   S       -1.82265        -8.40742         6.39450
   C       -0.41184        -8.47901         7.41019
   N        0.04940        -9.73242         7.77221
   O        1.04290        -9.79942         8.48311
   O       -0.57858       -10.69763         7.34834
   C        0.08121        -7.23831         7.73472
   C       -0.65393        -6.18475         7.18120
   C       -0.36768        -4.77710         7.36124
   C        0.63111        -4.28415         8.08963
   H       -3.87246         3.56312         8.34053
   H       -2.55480        -1.19580         7.50268
   H       -1.82193         3.52373        10.25316
   H       -6.81361        -0.09992         4.10651
   H       -7.36572         2.87002         4.65001
   H       -9.25810         3.76582         3.04818
   H      -10.87349         2.93625         1.21036
   H      -12.06222         1.54588        -0.48856
   H      -12.93311        -0.40317        -1.93535
   H      -12.50312        -3.09802        -2.26438
   H      -10.50514        -3.91592        -0.24257
   H      -10.15372        -8.51104        -1.51962
   H       -9.90539        -5.44581         0.89237
   H       -8.36261        -7.90976        -0.02296
   H       -8.38491        -6.16006         2.51407
   H       -6.47100        -8.69815         0.48963
   H       -6.12757        -9.52983         2.01027
   H       -5.04375        -8.27017         1.43806
   H       -5.56074        -7.97380         3.92528
   H       -7.06233        -7.13915         4.37393
   H       -6.09063        -5.16323         3.17836
   H       -4.19404        -4.56834         4.20544
   H       -3.88680        -7.47983         5.16160
   H       -2.54300        -4.90814         5.77907
   H        0.95013        -7.12490         8.35586
   H       -1.03154        -4.08899         6.85940
   H        1.33081        -4.90756         8.61781
   H        0.78015        -3.22223         8.17962
*
