# ORCA input file
# SCF done       -196.035811708382          0.000903253198
! CAM-B3LYP def2-SVP def2/J RIJCOSX Grid4 TightSCF
%maxcore 5000
%tddft
    Mode sTDDFT
    Ethresh 5.0
    maxcore 5000
end

%pal
  nprocs 6
  end
* xyz 0 1
   C       -3.03057        -1.20475         0.18406
   C       -2.74806        -2.00025         1.26992
   C       -2.02667        -3.20861         1.19734
   N       -1.44899        -4.20125         1.20730
   C       -3.14108        -1.74505         2.59829
   N       -3.42715        -1.60661         3.70311
   C       -2.63102        -1.49353        -1.19198
   C       -3.15181        -0.48148        -2.03521
   C       -2.94061        -0.46310        -3.39139
   C       -2.17115        -1.49298        -3.94496
   C       -1.65342        -2.49824        -3.09600
   C       -1.87194        -2.51797        -1.72282
   S       -0.72493        -3.66891        -3.98290
   C       -1.04198        -2.80379        -5.46292
   C       -1.80240        -1.69479        -5.30329
  Br       -0.33452        -3.44231        -7.07890
   C       -3.89565         0.49040        -1.21208
   O       -4.49301         1.47380        -1.62222
   C       -3.77013         0.03528         0.16981
   C       -4.22907         0.70469         1.28873
   C       -4.89203         1.91830         1.41072
   S       -5.40021         2.95670         0.10651
   C       -5.99061         4.17195         1.19059
   C       -5.81111         3.78883         2.54539
   C       -5.21101         2.50938         2.66943
   C       -4.98945         1.96510         3.94233
   C       -5.36023         2.69053         5.04594
   F       -5.16106         2.18540         6.27001
   C       -5.95127         3.96069         4.92058
   F       -6.30085         4.63462         6.02662
   C       -6.17882         4.51255         3.68724
   C       -6.52243         5.38295         0.73502
   C       -6.85411         5.62224        -0.57677
   C       -7.28550         6.83405        -1.12270
   S       -8.16034         6.80329        -2.62937
   C       -8.38389         8.52815        -2.65817
   C       -7.75041         9.12116        -1.52945
   C       -7.13355         8.16927        -0.67366
   C       -6.39809         8.62858         0.42789
   C       -6.34921         9.97128         0.70253
   C       -5.57197        10.48344         1.88239
   F       -4.98977         9.49204         2.57802
   F       -4.58343        11.31982         1.52804
   F       -6.34175        11.14753         2.75886
   C       -7.01455        10.92444        -0.11424
   O       -6.89619        12.20687         0.27912
   C       -7.51035        13.21865        -0.48501
   C       -7.69530        10.48725        -1.23239
   C       -9.07666         9.19226        -3.65825
   C       -9.78456         8.63994        -4.71171
   C      -10.45368         9.36941        -5.71637
   C      -11.13030         8.59519        -6.61579
   C      -11.03591         7.21516        -6.35497
   S      -10.02783         6.92604        -4.95348
   C      -11.65337         6.17690        -7.03568
   C      -12.46541         6.26168        -8.18667
   C      -12.96414         5.06255        -8.59738
   C      -12.57929         3.96518        -7.78690
   S      -11.53036         4.51874        -6.49406
   C      -12.97800         2.66496        -7.95944
   C      -12.65395         1.55678        -7.16122
   S      -11.61874         1.58530        -5.74132
   C      -11.80037        -0.09123        -5.42152
   C      -12.62045        -0.68097        -6.35617
   C      -13.09170         0.25142        -7.32737
   O      -13.89367        -0.35080        -8.22675
   C      -13.94166        -1.65600        -7.84317
   N      -14.72935        -2.54025        -8.62190
   O      -14.75758        -3.70000        -8.25776
   O      -15.30883        -2.08587        -9.58336
   C      -13.19895        -1.92689        -6.72606
   H       -3.34976         0.32288        -4.00661
   H       -1.45198        -3.30547        -1.12010
   H       -2.09084        -1.04411        -6.10855
   H       -4.01084         0.23317         2.23611
   H       -4.54500         0.99330         4.08799
   H       -6.63668         5.48556         3.61987
   H       -6.71752         6.14078         1.47841
   H       -6.83025         4.77875        -1.25660
   H       -5.84373         7.94054         1.04310
   H       -7.28097        14.14923         0.03000
   H       -8.59525        13.08307        -0.52665
   H       -7.10216        13.25429        -1.49954
   H       -8.17884        11.19238        -1.88686
   H       -9.08271        10.27292        -3.61123
   H      -10.42167        10.44422        -5.74671
   H      -11.70094         8.98547        -7.43862
   H      -12.65943         7.19712        -8.67918
   H      -13.60370         4.92787        -9.45130
   H      -13.63105         2.45079        -8.79563
   H      -11.30356        -0.53260        -4.58284
   H      -13.09569        -2.88166        -6.25389
*
