# ORCA input file
# SCF done       -136.236667107383          0.000812205449
! CAM-B3LYP def2-SVP def2/J RIJCOSX Grid4 TightSCF
%maxcore 5000
%tddft
    Mode sTDDFT
    Ethresh 5.0
    maxcore 5000
end

%pal
  nprocs 6
  end
* xyz 0 1
   C        8.11217         5.39254         9.77768
   C        7.99614         4.11245        10.15402
   C        8.18748         3.56351        11.46617
   C        7.98346         2.23200        11.54852
   C        7.61499         1.61404        10.31877
   S        7.56665         2.80970         9.03490
   C        7.25133         0.30779        10.12171
   C        7.06170        -0.69027        11.11616
   C        6.47003        -1.81950        10.66004
   C        6.17236        -1.80787         9.26519
   S        6.78398        -0.31419         8.54687
   C        5.40384        -2.71430         8.60177
   C        5.10667        -2.69111         7.20622
   S        3.45234        -2.88166         6.70194
   C        3.90484        -2.65919         5.05774
   C        5.24007        -2.50048         4.87761
   C        5.82709        -2.27396         3.52332
   C        5.96429        -2.54874         6.11558
   C        7.37495        -2.69261         6.31211
   C        8.34257        -2.94255         5.39885
   C        9.64707        -3.33608         5.80125
   C       10.59338        -3.79773         4.94694
   C       11.83638        -4.36554         5.32651
   S       12.90647        -4.98020         4.07621
   C       14.06386        -5.55565         5.22947
   C       13.66238        -5.29004         6.49120
   C       12.40441        -4.61248         6.56442
   C       12.10623        -4.38189         7.94110
   C       13.11478        -4.86508         8.72031
   C       14.17907        -5.52551         7.87217
   C       13.20604        -4.78607        10.13909
   S       14.03980        -6.02025        11.03535
   C       13.63539        -5.24825        12.51769
   C       12.91198        -4.11040        12.36002
   C       12.49610        -3.26677        13.51895
   C       12.66172        -3.81577        10.98028
   C       12.10309        -2.61753        10.42648
   C       11.28262        -1.70352        10.99349
   C       10.89876        -0.49680        10.33606
   C       10.91062        -0.29745         8.98921
   C       10.72199         0.92669         8.31283
   C       10.84281         2.19528         8.81226
   C       10.73183         3.38918         8.04810
   C       10.96393         4.53213         8.74098
   C       11.25653         4.32287        10.11270
   S       11.25737         2.60659        10.47065
   C       11.46322         5.26666        11.08630
   C       11.45345         6.68118        10.93975
   C       11.66782         7.36454        12.08591
   C       11.86792         6.53850        13.24233
   S       11.75694         4.83621        12.76366
   C       12.10506         6.93220        14.50127
   H        8.37693         6.15183        10.49243
   H        7.94211         5.70060         8.76249
   H        8.47468         4.19498        12.28812
   H        8.08709         1.65981        12.45324
   H        7.32809        -0.51927        12.14382
   H        6.20986        -2.66543        11.27211
   H        4.89096        -3.45891         9.19851
   H        3.13956        -2.65651         4.30615
   H        5.04026        -2.00820         2.82069
   H        6.31346        -3.17817         3.15765
   H        6.55747        -1.46850         3.55432
   H        7.67310        -2.73170         7.35263
   H        8.14322        -2.93949         4.33953
   H        9.84378        -3.33150         6.86265
   H       10.38938        -3.78866         3.88301
   H       14.95018        -6.04557         4.87858
   H       11.20387        -3.93895         8.31778
   H       14.26568        -6.58954         8.10540
   H       15.15904        -5.07266         8.03751
   H       13.96942        -5.68758        13.43748
   H       12.98433        -3.61512        14.42638
   H       11.41823        -3.32257        13.66863
   H       12.76965        -2.22706        13.34790
   H       12.43668        -2.41740         9.41567
   H       10.91861        -1.83588        12.00049
   H       10.55345         0.30237        10.97808
   H       11.06832        -1.15137         8.34225
   H       10.52987         0.86405         7.24879
   H       10.48290         3.35163         7.00211
   H       10.93421         5.51788         8.31303
   H       11.28638         7.14052         9.98136
   H       11.69483         8.43684        12.16842
   H       12.16616         7.97766        14.74684
   H       12.24320         6.22540        15.29873
*
