# ORCA input file
# SCF done       -170.864815195670          0.000905236367
! CAM-B3LYP def2-SVP def2/J RIJCOSX Grid4 TightSCF
%maxcore 5000
%tddft
    Mode sTDDFT
    Ethresh 5.0
    maxcore 5000
end

%pal
  nprocs 6
  end
* xyz 0 1
   C       10.73130        -4.92157         9.94831
   C       11.43697        -5.64394         9.06947
   C       12.59699        -6.45185         9.32705
   C       13.10416        -7.06736         8.23901
   C       12.39603        -6.80483         7.02921
   S       11.04198        -5.73046         7.34512
   C       12.67513        -7.28393         5.77850
   C       13.73918        -8.15330         5.39814
   C       13.76647        -8.45894         4.08340
   C       12.71817        -7.85494         3.31510
   S       11.70168        -6.86505         4.37656
   C       12.46061        -8.00814         2.00245
   C       11.37484        -7.29245         1.31467
   C       10.18725        -7.87478         0.85951
   N        9.71561        -9.16719         0.97315
   C       10.40116       -10.21164         1.68816
   C       10.02479       -10.22984         3.17029
   C        8.46810        -9.24249         0.38952
   C        8.14823        -7.97401        -0.15384
   C        9.23111        -7.09422         0.17143
   C        9.43427        -5.74037        -0.05681
   C       10.59106        -5.16320         0.42213
   C       11.53513        -5.92840         1.09640
   C        6.97853        -7.75764        -0.86740
   C        6.11802        -8.82213        -1.04698
   C        6.41765       -10.06497        -0.51503
   C        7.57845       -10.32517         0.22236
   C        7.77525       -11.63431         0.79820
   C        7.37382       -12.83494         0.30384
   C        7.61386       -14.09189         0.93909
   C        7.20620       -15.17322         0.23289
   C        6.59381       -14.85727        -1.00746
   S        6.57213       -13.11801        -1.24337
   C        6.05347       -15.72390        -1.92456
   C        6.02546       -17.14148        -1.87093
   C        5.42120       -17.72358        -2.93390
   C        4.90772       -16.80960        -3.90480
   S        5.27828       -15.16027        -3.39599
   C        4.17817       -17.16718        -4.99333
   C        3.62418       -16.29406        -6.00360
   C        2.40200       -16.51574        -6.67064
   N        1.42860       -17.48217        -6.50008
   C        1.43873       -18.51050        -5.49349
   C        2.09206       -19.80447        -5.98475
   C        0.38343       -17.23103        -7.36668
   C        0.68075       -16.06305        -8.10663
   C        1.96716       -15.61109        -7.66721
   C        2.71727       -14.50130        -8.02766
   C        3.91450       -14.28530        -7.37536
   C        4.34388       -15.15783        -6.38945
   C       -0.21586       -15.52864        -9.01986
   C       -1.43176       -16.16122        -9.18595
   C       -1.73461       -17.30276        -8.46260
   C       -0.85101       -17.88524        -7.54791
   C       -1.22768       -19.12546        -6.90463
   C       -2.46486       -19.48740        -6.48130
   C       -2.79324       -20.75007        -5.89635
   C       -4.07460       -20.86463        -5.47887
   C       -4.86399       -19.70259        -5.69950
   S       -3.89824       -18.45474        -6.46976
   C       -6.18719       -19.51994        -5.39593
   C       -7.07538       -20.45614        -4.79267
   C       -8.33301       -19.99886        -4.61483
   C       -8.54701       -18.65289        -5.06768
   S       -7.03306       -18.01674        -5.73075
   C       -9.68254       -17.94390        -5.02110
   H       11.00806        -4.89743        10.98739
   H        9.87361        -4.34779         9.64949
   H       12.99672        -6.53165        10.32246
   H       13.96853        -7.70784         8.25219
   H       14.44826        -8.51891         6.11982
   H       14.49446        -9.09835         3.61521
   H       13.12795        -8.61856         1.40596
   H       11.47485       -10.03783         1.59820
   H       10.17578       -11.16891         1.21115
   H       10.31483        -9.29211         3.63739
   H       10.53567       -11.04475         3.67750
   H        8.95137       -10.34845         3.30069
   H        8.69656        -5.15816        -0.58714
   H       10.77455        -4.10953         0.27570
   H       12.43847        -5.45752         1.45620
   H        6.75773        -6.78177        -1.27119
   H        5.19799        -8.69162        -1.59627
   H        5.70032       -10.86124        -0.63533
   H        8.27359       -11.68659         1.75473
   H        8.09344       -14.14007         1.90172
   H        7.31964       -16.19062         0.56310
   H        6.45359       -17.68301        -1.04606
   H        5.30616       -18.78626        -3.06185
   H        4.02999       -18.23013        -5.11147
   H        0.40419       -18.70301        -5.19417
   H        1.97322       -18.12851        -4.61896
   H        1.55888       -20.20848        -6.84225
   H        2.09059       -20.54653        -5.18995
   H        3.11804       -19.62922        -6.30051
   H        2.36445       -13.82789        -8.79324
   H        4.52813       -13.43481        -7.63106
   H        5.29939       -14.97765        -5.92241
   H        0.03434       -14.63829        -9.57550
   H       -2.15465       -15.77449        -9.88811
   H       -2.67744       -17.79471        -8.64375
   H       -0.46188       -19.87832        -6.78551
   H       -2.05239       -21.52624        -5.80884
   H       -4.48405       -21.74396        -5.01432
   H       -6.74315       -21.44046        -4.51241
   H       -9.13735       -20.56284        -4.17624
   H      -10.57981       -18.37130        -4.60962
   H       -9.73653       -16.93646        -5.39132
*
