# ORCA input file
# SCF done       -174.419382965759          0.000426825169
! CAM-B3LYP def2-SVP def2/J RIJCOSX Grid4 TightSCF
%maxcore 5000
%tddft
    Mode sTDDFT
    Ethresh 5.0
    maxcore 5000
end

%pal
  nprocs 6
  end
* xyz 0 1
   C        7.60430       -15.47370        -0.31936
   C        8.15300       -14.26052        -0.45289
   C        9.54369       -13.93014        -0.59163
   C        9.79428       -12.61431        -0.75493
   C        8.63174       -11.78985        -0.76126
   S        7.19705       -12.76829        -0.50265
   C        8.56369       -10.44245        -1.00070
   C        9.62065        -9.56863        -1.37608
   C        9.21200        -8.32483        -1.72003
   C        7.80168        -8.12035        -1.64010
   S        7.03626        -9.57209        -0.99465
   C        7.12193        -7.05958        -2.15174
   C        5.69828        -6.95237        -2.23618
   S        5.05686        -6.32460        -3.65527
   C        4.85107        -7.38469        -1.20089
   C        3.49257        -7.40258        -1.34236
   S        2.65597        -7.08508        -2.83618
   C        1.17254        -7.53493        -2.02923
   C        1.36530        -7.79555        -0.71633
   O        2.67564        -7.70809        -0.33279
   C        0.39744        -8.07827         0.30341
   C       -0.75327        -8.75035         0.06253
   C       -1.74779        -9.04653         1.02434
   C       -2.59865       -10.11098         0.88442
   C       -3.61956       -10.56857         1.75752
   C       -4.12281       -11.79575         1.44046
   C       -3.50315       -12.39148         0.31894
   S       -2.37729       -11.27357        -0.41698
   C       -3.50898       -13.70375        -0.11793
   C       -4.19759       -14.84434         0.34433
   C       -3.71579       -16.01706        -0.16364
   C       -2.59675       -15.86750        -1.02201
   S       -2.29970       -14.16915        -1.29778
   C       -1.73982       -16.85543        -1.45882
   C       -0.47853       -16.63807        -2.02864
   S        0.09730       -15.04964        -2.42681
   C        1.71293       -15.63753        -2.74857
   C        1.76822       -17.03005        -2.58325
   C        0.54442       -17.58460        -2.22454
   C        0.34890       -19.05491        -2.02212
   C        1.49322       -19.83754        -2.65899
   C        2.83997       -19.26347        -2.19278
   N        3.99886       -20.05003        -2.56957
   C        3.00796       -17.84649        -2.74920
   C        2.64705       -14.63883        -3.05243
   C        3.99732       -14.71463        -3.27782
   C        4.72206       -13.53198        -3.47594
   C        6.08648       -13.44152        -3.62364
   C        6.84363       -12.23226        -3.83494
   C        6.36570       -10.94481        -3.91693
   C        7.16889        -9.84580        -4.27703
   N        7.78163        -8.92436        -4.58592
   C        5.05057       -10.52854        -3.63331
   N        4.01864       -10.09615        -3.36940
   C        8.25421       -12.60362        -3.92186
   C        8.36448       -14.00638        -3.77361
   C        7.01413       -14.58523        -3.59924
   O        6.75669       -15.76503        -3.45428
   C        9.57208       -14.65827        -3.75196
   C       10.73273       -13.88562        -3.86201
   C       10.61264       -12.48428        -3.99612
   C        9.39056       -11.82623        -4.03779
   S       12.16953       -11.71267        -4.06837
   C       12.94933       -13.26681        -3.92577
   C       12.09071       -14.30826        -3.82900
  Br       14.82409       -13.36509        -3.91177
   H        8.21770       -16.35678        -0.30932
   H        6.54161       -15.60760        -0.23725
   H       10.29335       -14.70113        -0.56727
   H       10.77678       -12.19234        -0.87292
   H       10.64226        -9.90318        -1.41241
   H        9.86033        -7.54164        -2.06967
   H        7.69261        -6.32083        -2.69694
   H        5.26821        -7.66249        -0.24515
   H        0.23787        -7.51891        -2.54871
   H        0.66171        -7.77495         1.30666
   H       -0.90754        -9.16312        -0.92715
   H       -1.79980        -8.45762         1.92950
   H       -3.93053        -9.98600         2.60696
   H       -4.88039       -12.30742         2.00736
   H       -5.00299       -14.77734         1.05414
   H       -4.09081       -16.99005         0.10192
   H       -2.01101       -17.87777        -1.23350
   H       -0.60566       -19.36609        -2.45375
   H        0.31101       -19.27069        -0.94876
   H        1.42890       -19.76791        -3.74802
   H        1.41815       -20.89182        -2.38096
   H        2.83405       -19.21600        -1.09629
   H        4.06082       -20.13292        -3.57895
   H        3.94164       -20.98477        -2.18158
   H        3.26323       -17.90626        -3.81235
   H        3.84853       -17.36868        -2.24528
   H        2.21778       -13.64137        -3.07283
   H        4.52919       -15.65058        -3.28579
   H        4.15053       -12.61244        -3.49450
   H        9.61971       -15.72970        -3.63606
   H        9.35719       -10.75487        -4.14048
   H       12.39988       -15.33344        -3.73624
*
