# ORCA input file
# SCF done       -191.076289167618          0.000425929081
! CAM-B3LYP def2-SVP def2/J RIJCOSX Grid4 TightSCF
%maxcore 5000
%tddft
    Mode sTDDFT
    Ethresh 5.0
    maxcore 5000
end

%pal
  nprocs 6
  end
* xyz 0 1
   C      -11.55071        -1.31736         2.86661
   C      -11.64566        -2.66597         3.09540
   C      -12.12058        -3.23586         4.29387
   N      -12.49933        -3.75287         5.24618
   C      -11.27976        -3.65067         2.15553
   N      -10.99762        -4.48156         1.41537
   C      -11.92205        -0.26104         3.80593
   C      -11.67862         0.99953         3.20028
   C      -11.93170         2.19023         3.83738
   C      -12.45381         2.13689         5.13396
   C      -12.69604         0.87635         5.72963
   C      -12.43656        -0.32881         5.08534
   S      -13.34726         1.04119         7.33054
   C      -13.28713         2.77708         7.18159
   C      -12.80304         3.21316         5.99398
  Br      -13.87177         3.85092         8.60322
   C      -11.14871         0.77997         1.85177
   O      -10.82532         1.63693         1.02811
   C      -11.07791        -0.66914         1.66648
   C      -10.61950        -1.22002         0.49030
   N      -10.25043        -0.41208        -0.50778
   C       -9.76642        -0.74407        -1.72660
   S       -9.45878        -2.39131        -2.17850
   C       -8.90158        -1.83080        -3.72228
   N       -8.46344        -2.78793        -4.65126
   O       -8.07857        -2.38508        -5.73224
   O       -8.50370        -3.95231        -4.29993
   C       -8.95189        -0.47373        -3.87413
   C       -9.45511         0.18946        -2.73282
   C       -9.64362         1.59749        -2.58604
   C       -9.39705         2.50754        -3.56818
   C       -9.54737         3.90576        -3.50485
   C       -9.62209         4.73385        -4.63467
   C       -9.55748         4.42372        -6.00825
   C       -9.75694         5.41128        -6.92766
   C      -10.06098         6.73529        -6.53020
   C      -10.11627         7.08446        -5.21447
   C       -9.86472         6.09955        -4.23094
   C       -9.90150         6.14208        -2.84106
   C       -9.68665         4.77940        -2.32964
   C       -9.48005         4.49354        -1.03809
   N      -10.04556         7.23272        -2.03594
   C       -9.53608         8.45877        -2.28436
   S       -8.21105         8.69722        -3.39021
   C       -8.09211        10.35222        -2.86544
   N       -7.12487        11.15267        -3.48246
   O       -7.04103        12.31516        -3.13177
   O       -6.43613        10.61514        -4.33385
   C       -9.00131        10.69247        -1.90397
   C       -9.86580         9.62958        -1.57339
   C      -10.95104         9.76325        -0.65682
   C      -12.09928         9.03819        -0.66982
   C      -13.15843         9.22205         0.25311
   C      -13.08392         9.64909         1.54823
   C      -11.98929         9.73520         2.48279
   C      -10.86207         8.94110         2.50200
   C       -9.88790         8.97863         3.51920
   N       -9.06616         8.97026         4.32059
   C      -10.60931         7.95212         1.54782
   N      -10.38502         7.11183         0.79234
   C      -12.40497        10.62057         3.56366
   C      -13.79081        10.88988         3.42281
   C      -14.29310        10.21395         2.20891
   O      -15.43112        10.15531         1.80565
   C      -14.48103        11.67926         4.30871
   C      -13.76851        12.24047         5.37543
   C      -12.38248        11.97734         5.49841
   C      -11.68551        11.16920         4.60797
   S      -11.69904        12.78238         6.87701
   C      -13.26163        13.44883         7.26856
   C      -14.24653        13.08848         6.41021
  Br      -13.44541        14.55714         8.76943
   H      -11.73505         3.13340         3.35202
   H      -12.63774        -1.26311         5.58207
   H      -12.69609         4.25050         5.73430
   H      -10.54517        -2.28743         0.33035
   H      -10.35734         0.59405        -0.27351
   H       -8.63211         0.00477        -4.78102
   H      -10.05195         1.93951        -1.64848
   H       -9.08876         2.13443        -4.53508
   H       -9.35894         3.41234        -6.32781
   H       -9.70528         5.18769        -7.98244
   H      -10.25624         7.47303        -7.29339
   H      -10.38325         8.08918        -4.92587
   H       -9.57889         5.24150        -0.26881
   H       -9.19267         3.51460        -0.70090
   H      -10.34557         7.07130        -1.06488
   H       -9.06119        11.68004        -1.48338
   H      -10.86368        10.58121         0.04790
   H      -12.28507         8.35549        -1.48873
   H      -14.16557         9.06790        -0.12080
   H      -15.53695        11.86126         4.18506
   H      -10.62846        11.00252         4.73553
   H      -15.26830        13.40846         6.50221
*
