# ORCA input file
# SCF done       -178.840038444590          0.000528887434
! CAM-B3LYP def2-SVP def2/J RIJCOSX Grid4 TightSCF
%maxcore 5000
%tddft
    Mode sTDDFT
    Ethresh 5.0
    maxcore 5000
end

%pal
  nprocs 6
  end
* xyz 0 1
   C       -1.61948         0.48422         0.51695
   C       -0.84123        -0.02897        -0.49341
   C        0.08563        -1.07719        -0.32262
   N        0.85811        -1.92423        -0.25214
   C       -0.85592         0.38623        -1.83957
   N       -0.81076         0.65617        -2.95654
   C       -1.61961         0.00686         1.89753
   C       -2.59151         0.73390         2.62711
   C       -2.83930         0.51316         3.95908
   C       -2.08907        -0.47482         4.60668
   C       -1.11882        -1.19471         3.87163
   C       -0.86952        -0.97085         2.52251
   S       -0.30504        -2.36680         4.86370
   C       -1.26784        -1.88066         6.23340
   C       -2.15270        -0.89157         5.96457
  Br       -1.01398        -2.72414         7.88969
   C       -3.23886         1.70936         1.72834
   O       -4.12395         2.48906         2.03692
   C       -2.59845         1.54492         0.42198
   C       -2.85488         2.28220        -0.71255
   C       -3.78518         3.29198        -0.95915
   S       -4.94763         3.91898         0.18354
   C       -5.58327         5.00992        -1.00575
   C       -4.90857         4.90167        -2.22871
   C       -3.91419         3.93520        -2.20763
   C       -3.06516         3.63327        -3.40164
   C       -3.69037         4.20050        -4.67369
   C       -4.09924         5.66612        -4.46719
   N       -4.53689         6.34779        -5.67248
   C       -5.22732         5.72690        -3.43418
   C       -6.66657         5.86940        -0.72481
   C       -7.28524         5.94655         0.48544
   C       -8.38592         6.77513         0.76735
   C       -9.07545         6.91083         1.98120
   C      -10.17479         7.83063         1.91456
   N      -10.97995         8.05345         2.97056
   C      -10.72759         7.42184         4.08092
   C       -9.66404         6.51295         4.25527
   C       -8.83106         6.25374         3.20140
   C      -10.32779         8.41360         0.64699
   S       -9.11959         7.79171        -0.43056
   C      -11.25020         9.33049         0.04974
   C      -12.13065        10.20471         0.57158
   C      -12.38087        10.50062         2.00657
   C      -12.99814        10.99137        -0.37905
   N      -14.29519        10.34529        -0.45773
   C      -15.45178        10.97939        -0.64959
   C      -15.58924        12.26918        -1.08917
   C      -16.81376        12.92045        -1.28519
   C      -18.08548        12.63458        -0.84209
   C      -18.62655        11.83067         0.21973
   C      -18.00656        11.44187         1.38774
   C      -18.64569        10.74465         2.43014
   N      -19.09910        10.15733         3.30741
   C      -16.67464        11.73627         1.71537
   N      -15.58845        11.94259         2.03229
   C      -20.06526        11.69648        -0.01828
   C      -20.43181        12.55986        -1.07840
   C      -19.21743        13.23419        -1.58524
   O      -19.15465        14.07706        -2.45518
   C      -21.72529        12.68084        -1.52074
   C      -22.70448        11.90160        -0.89357
   C      -22.32605        11.03051         0.15354
   C      -21.01678        10.91509         0.60691
   S      -23.68923        10.14999         0.77710
   C      -24.73527        10.95894        -0.35937
   C      -24.09919        11.84036        -1.16608
  Br      -26.56860        10.55907        -0.37575
   H       -3.58788         1.08350         4.48630
   H       -0.11807        -1.54665         2.00909
   H       -2.82321        -0.47221         6.69227
   H       -2.23740         2.05056        -1.56944
   H       -2.92074         2.55676        -3.51553
   H       -2.07521         4.07726        -3.25227
   H       -4.57562         3.61717        -4.94116
   H       -2.97400         4.12260        -5.49449
   H       -3.23542         6.22211        -4.08302
   H       -5.30416         5.84181        -6.10379
   H       -3.78252         6.39741        -6.34798
   H       -6.14928         5.35551        -3.89468
   H       -5.40088         6.76680        -3.15412
   H       -7.02545         6.49208        -1.53421
   H       -6.92010         5.32978         1.29574
   H      -11.40043         7.63587         4.90111
   H       -9.52142         6.03525         5.21138
   H       -8.00732         5.56160         3.29200
   H      -11.17048         9.32139        -1.03364
   H      -11.81828        11.39188         2.28905
   H      -12.06215         9.67951         2.64105
   H      -13.43382        10.72388         2.17030
   H      -12.55208        11.04568        -1.37991
   H      -13.14118        12.00473         0.00430
   H      -14.31108         9.37423        -0.18593
   H      -16.33604        10.36833        -0.52117
   H      -14.70546        12.81287        -1.38692
   H      -16.78643        13.77197        -1.95980
   H      -21.97649        13.35432        -2.32505
   H      -20.77799        10.23187         1.40499
   H      -24.59033        12.42401        -1.92319
*
