# ORCA input file
# SCF done       -197.530240874161          0.000613081627
! CAM-B3LYP def2-SVP def2/J RIJCOSX Grid4 TightSCF
%maxcore 5000
%tddft
    Mode sTDDFT
    Ethresh 5.0
    maxcore 5000
end

%pal
  nprocs 6
  end
* xyz 0 2
   C        2.88792        -3.77907        -2.54324
   C        3.51077        -2.65780        -3.01615
   F        4.83236        -2.65548        -3.21818
   C        2.77339        -1.48789        -3.28686
   F        3.40611        -0.39944        -3.74673
   C        1.42380        -1.45377        -3.07932
   C        0.75286        -2.59644        -2.60436
   C        1.49550        -3.78217        -2.33167
   C        0.83671        -4.95149        -1.88378
   C       -0.52535        -4.94256        -1.74126
   C       -1.25770        -3.75338        -2.02404
   C       -0.64682        -2.60043        -2.42697
   C       -2.68643        -4.02397        -1.85473
   O       -3.61854        -3.24617        -2.04153
   C       -2.79427        -5.41865        -1.42394
   C       -1.47021        -6.00009        -1.38473
   C       -1.15236        -7.30796        -1.13631
   C        0.16670        -7.80187        -1.05262
   N        1.21573        -8.24674        -0.92181
   C       -2.11946        -8.31487        -0.94362
   N       -2.89175        -9.15409        -0.81215
   C       -4.00745        -5.97581        -1.09979
   N       -5.13447        -5.27276        -1.26188
   C       -6.40151        -5.67954        -0.98835
   S       -6.69214        -7.21744        -0.22998
   C       -8.39531        -6.95766        -0.39670
   N       -9.26425        -7.95001         0.08528
   O      -10.45757        -7.76122        -0.04616
   O       -8.74931        -8.92046         0.60663
   C       -8.70976        -5.76935        -0.99581
   C       -7.57670        -4.99938        -1.33023
   C       -7.69761        -3.73453        -2.01759
   C       -6.80600        -2.72419        -1.99633
   C       -6.82320        -1.53213        -2.78192
   S       -5.29102        -0.73930        -2.96615
   C       -5.96366         0.42351        -4.06222
   C       -7.32478         0.21704        -4.23087
   C       -7.81132        -0.88697        -3.51019
   C       -9.25840        -1.26930        -3.53127
   C      -10.11720        -0.10459        -4.01685
   C       -9.56342         0.44270        -5.34087
   N      -10.41565         1.41971        -5.99522
   C       -8.19609         1.08148        -5.08603
   C       -5.12324         1.35217        -4.74214
   C       -3.78117         1.32020        -4.63261
   C       -2.84988         2.11946        -5.38083
   C       -1.53620         1.65469        -5.80752
   C       -0.70341         2.80746        -6.35459
   C       -1.70440         3.90382        -6.32895
   C       -2.93245         3.42887        -5.76410
   C       -3.53640         4.81971        -5.90261
   C       -2.16029         5.17324        -6.47128
   C       -1.09634         0.35250        -5.82699
   C       -1.91243        -0.76559        -5.62996
   C       -1.44620        -2.06176        -5.51588
   C       -2.28347        -3.15331        -5.29408
   C       -1.88075        -4.50124        -5.02239
   C       -0.59346        -5.00325        -5.00909
   C       -0.27410        -6.31338        -4.61156
   N        0.04084        -7.36061        -4.25720
   C        0.56979        -4.28852        -5.34156
   N        1.56998        -3.78079        -5.59719
   C       -3.08188        -5.28157        -4.72074
   C       -4.20698        -4.43096        -4.83797
   C       -3.75311        -3.07411        -5.20508
   O       -4.47805        -2.11317        -5.38865
   C       -5.49088        -4.85959        -4.61943
   C       -5.67778        -6.19757        -4.25071
   C       -4.54955        -7.03973        -4.11981
   C       -3.24956        -6.60463        -4.36227
   S       -4.99755        -8.64239        -3.62012
   C       -6.67642        -8.17110        -3.61056
   C       -6.88952        -6.87779        -3.95780
  Br       -7.99733        -9.41326        -3.12189
   H        3.46535        -4.66932        -2.34953
   H        0.86923        -0.55293        -3.29253
   H        1.42399        -5.83445        -1.69020
   H       -1.22846        -1.71386        -2.63008
   H       -4.09756        -6.97841        -0.70176
   H       -4.99001        -4.34057        -1.68310
   H       -9.72552        -5.46341        -1.17123
   H       -8.60481        -3.63741        -2.59431
   H       -5.93215        -2.79092        -1.36370
   H       -9.57519        -1.57845        -2.53203
   H       -9.39804        -2.11936        -4.20790
   H      -10.11709         0.69324        -3.26925
   H      -11.14804        -0.44144        -4.15268
   H       -9.44126        -0.39191        -6.04188
   H      -10.60904         2.19497        -5.36889
   H      -11.30315         1.00418        -6.25524
   H       -8.34697         2.04522        -4.58669
   H       -7.71436         1.28514        -6.04336
   H       -5.59784         2.03181        -5.43601
   H       -3.34015         0.61497        -3.93966
   H       -0.32768         2.58401        -7.35460
   H        0.15927         3.01524        -5.71680
   H       -3.79981         5.30567        -4.96440
   H       -4.36877         4.89239        -6.60082
   H       -1.74865         6.09677        -6.82971
   H       -0.05293         0.17658        -6.06666
   H       -2.98020        -0.61878        -5.59439
   H       -0.37757        -2.22927        -5.54958
   H       -6.32558        -4.18450        -4.72315
   H       -2.42747        -7.29378        -4.26636
   H       -7.86236        -6.42505        -4.01049
*
