# ORCA input file
# SCF done       -175.292486105897          0.000468107837
! CAM-B3LYP def2-SVP def2/J RIJCOSX Grid4 TightSCF
%maxcore 5000
%tddft
    Mode sTDDFT
    Ethresh 5.0
    maxcore 5000
end

%pal
  nprocs 6
  end
* xyz 0 1
   C        3.79477        -5.48534         8.31995
   C        4.08344        -4.85264         7.17500
   C        4.30619        -3.44729         6.97983
   C        4.57333        -3.09780         5.70361
   C        4.58126        -4.18584         4.78201
   S        4.24441        -5.68370         5.61956
   C        4.81114        -4.13881         3.43015
   C        5.13474        -2.99450         2.65413
   C        5.31995        -3.26380         1.33782
   C        5.14895        -4.63389         0.99802
   S        4.73587        -5.57415         2.41093
   C        5.28985        -5.21141        -0.23369
   C        5.08097        -6.59475        -0.39044
   S        5.36795        -7.45017        -1.91648
   C        4.90873        -8.89666        -1.12754
   C        4.56827        -8.66832         0.19018
   N        4.67690        -7.37035         0.56564
   C        4.11032        -9.67040         1.10685
   C        3.68101        -9.36262         2.34834
   C        3.19292       -10.30299         3.29335
   S        3.35519       -12.01191         3.06687
   C        2.54206       -12.34787         4.57891
   C        2.19187       -11.15974         5.22326
   C        2.55001       -10.02181         4.49562
   C        2.24459        -8.61988         4.93509
   C        1.45112        -7.91036         3.84517
   O        0.48283        -8.36752         3.29843
   O        1.94514        -6.69481         3.60978
   C        1.31614        -5.92015         2.59830
   C        1.40617        -8.60303         6.22165
   C        1.88521        -9.68182         7.18433
   C        1.59745       -11.05941         6.59111
   C        2.36905       -13.69730         4.93686
   C        1.48388       -14.19732         5.85677
   C        1.35978       -15.54411         6.22535
   C        2.22475       -16.59508         6.00024
   C        1.99049       -17.93158         6.39813
   C        3.01787       -18.79027         6.13423
   C        4.12750       -18.17306         5.52322
   S        3.81528       -16.47831         5.26533
   C        5.33655       -18.75483         5.16413
   C        5.71550       -20.10372         5.28351
   C        6.99576       -20.35182         4.87054
   C        7.68377       -19.21112         4.41092
   S        6.64877       -17.80608         4.50100
   C        8.99597       -19.16425         3.96564
   C        9.61768       -17.99763         3.55066
   C       10.93799       -17.90560         3.13824
   C       11.62169       -16.71638         2.71312
   C       11.09877       -15.44709         2.58764
   C       11.83746       -14.32686         2.16373
   N       12.37942       -13.37174         1.82374
   C        9.76742       -15.07317         2.85142
   N        8.70601       -14.67260         3.03960
   C       13.00845       -17.07983         2.41828
   C       13.16791       -18.46777         2.64343
   C       11.87812       -19.03639         3.09621
   O       11.67274       -20.20421         3.37298
   C       14.36210       -19.11735         2.45808
   C       15.45821       -18.35895         2.03014
   C       15.29003       -16.97402         1.80837
   C       14.07870       -16.31683         1.99469
   S       16.77095       -16.22572         1.28718
   C       17.58279       -17.76625         1.37459
   C       16.78978       -18.78815         1.77210
  Br       19.40388       -17.87937         0.93401
   H        3.70685        -4.93951         9.24264
   H        3.64777        -6.54928         8.35711
   H        4.25540        -2.76354         7.80863
   H        4.76359        -2.09026         5.37872
   H        5.23148        -2.01549         3.08915
   H        5.57748        -2.53310         0.59125
   H        5.57540        -4.62056        -1.08905
   H        4.90388        -9.82925        -1.65433
   H        4.09777       -10.69084         0.74995
   H        3.70135        -8.32501         2.65072
   H        3.17716        -8.06987         5.09011
   H        1.47869        -4.87568         2.85504
   H        0.24985        -6.14932         2.55639
   H        1.77457        -6.14406         1.63304
   H        0.36003        -8.78965         5.96778
   H        1.47635        -7.61451         6.67816
   H        2.95829        -9.57230         7.35413
   H        1.37477        -9.58105         8.14345
   H        0.51399       -11.20437         6.53298
   H        2.00987       -11.84360         7.23009
   H        2.95859       -14.39538         4.35798
   H        0.76557       -13.52514         6.30138
   H        0.47648       -15.80209         6.79758
   H        1.06811       -18.22063         6.87090
   H        3.00890       -19.83695         6.37860
   H        5.04797       -20.85512         5.66562
   H        7.46509       -21.31924         4.88827
   H        9.55564       -20.08830         3.95904
   H        9.02223       -17.09281         3.56414
   H       14.45103       -20.17724         2.63851
   H       14.00454       -15.25802         1.81219
   H       17.12672       -19.80298         1.88062
*
