# ORCA input file
# SCF done       -282.547428489336          0.000470245024
! CAM-B3LYP def2-SVP def2/J RIJCOSX Grid4 TightSCF
%maxcore 5000
%tddft
    Mode sTDDFT
    Ethresh 5.0
    maxcore 5000
end

%pal
  nprocs 6
  end
* xyz 0 1
   C       -3.20013         2.04495         4.93777
   C       -2.98690         2.35366         6.25186
   F       -2.47773         3.54573         6.58985
   C       -3.29743         1.42579         7.26617
   F       -3.07685         1.75472         8.54659
   C       -3.81712         0.20150         6.95205
   C       -4.04684        -0.14701         5.60692
   C       -3.73419         0.79053         4.58014
   C       -3.95574         0.46305         3.22285
   C       -4.46788        -0.76695         2.90346
   C       -4.76637        -1.69948         3.93344
   C       -4.57318        -1.40903         5.25306
   C       -5.27111        -2.95302         3.33736
   O       -5.68263        -3.90934         3.96061
   C       -5.15783        -2.76983         1.87123
   C       -4.79361        -1.38279         1.62132
   C       -4.82259        -0.72794         0.41848
   C       -5.25208        -1.27738        -0.80915
   N       -5.60878        -1.63462        -1.84047
   C       -4.47182         0.62928         0.25618
   N       -4.19567         1.72607         0.06056
   C       -5.21273        -3.71457         0.88274
   C       -5.50791        -5.09353         0.92546
   C       -6.01191        -5.90448         1.91758
   C       -6.14714        -7.24994         1.53810
   C       -6.57694        -8.33010         2.35327
   C       -7.12478        -8.09125         3.66709
   C       -7.95199        -7.07220         4.06001
   C       -8.31784        -7.14295         5.41569
   C       -7.77060        -8.20534         6.06994
   S       -6.79615        -9.16077         5.00295
   C       -7.92196        -8.58805         7.49753
   C       -6.44278        -9.59831         1.80954
   C       -5.97103        -9.83300         0.48954
   C       -5.59583        -8.75497        -0.35016
   C       -5.70051        -7.48476         0.20949
   S       -5.20531        -6.00374        -0.55209
   C       -5.09965        -8.94290        -1.69170
   C       -5.30472        -8.13772        -2.78312
   C       -4.63943        -8.58173        -3.93802
   C       -3.90205        -9.71301        -3.74405
   S       -4.03977       -10.26732        -2.11133
   C       -3.07463       -10.46074        -4.72035
   C       -5.97815       -11.20012         0.17085
   C       -6.40028       -12.01365         1.19771
   S       -6.85823       -11.09296         2.61054
   C       -6.44531       -13.43689         1.22544
   C       -6.00979       -14.27179         0.16744
   C       -5.99292       -15.70819         0.31263
   N       -5.52694       -16.47258        -0.68136
   C       -5.10186       -15.92640        -1.79458
   C       -5.15913       -14.50647        -1.95460
   N       -5.59685       -13.73360        -0.98822
   C       -4.74947       -13.90335        -3.16781
   N       -4.42170       -13.43695        -4.16217
   C       -4.58702       -16.75570        -2.81996
   N       -4.15552       -17.39642        -3.66612
   C       -6.42875       -16.37792         1.47716
   C       -6.89800       -15.54806         2.51778
   C       -6.89744       -14.11059         2.38175
   N       -7.36088       -13.51140         3.47731
   S       -7.75476       -14.62330         4.56527
   N       -7.35955       -15.92659         3.71050
   C       -6.34107       -17.79462         1.57025
   C       -6.71998       -18.57571         2.63838
   C       -6.45789       -19.94547         2.45903
   C       -6.72449       -20.99854         3.36936
   C       -7.19254       -20.72627         4.70695
   C       -6.81646       -19.70889         5.54405
   C       -7.47275       -19.73952         6.78752
   C       -8.35729       -20.76902         6.90986
   S       -8.38289       -21.74163         5.47697
   C       -9.22652       -21.10891         8.06523
   C       -6.49390       -22.28326         2.89498
   C       -5.98742       -22.55442         1.59423
   C       -5.61446       -21.49415         0.72659
   C       -5.88533       -20.21166         1.18905
   S       -5.65280       -18.73697         0.27598
   C       -4.90883       -21.70335        -0.51557
   C       -3.93452       -20.89809        -1.04966
   C       -3.38238       -21.38778        -2.24497
   C       -3.92795       -22.56593        -2.65626
   S       -5.15344       -23.08899        -1.55061
   C       -3.56155       -23.40903        -3.81892
   C       -5.82272       -23.93025         1.38256
   C       -6.12022       -24.71617         2.47156
   S       -6.70583       -23.74933         3.80950
   C       -6.05996       -26.12112         2.58980
   C       -5.50165       -27.04000         1.74810
   C       -5.94714       -28.45642         1.86633
   O       -6.54665       -28.95342         2.79098
   C       -5.55281       -29.09555         0.59398
   C       -5.82642       -30.35508         0.14576
   C       -5.37069       -30.74256        -1.13461
   C       -4.64321       -29.80975        -1.92922
   C       -4.19771       -30.19998        -3.20803
   C       -4.45824       -31.45791        -3.67419
   C       -5.17603       -32.38017        -2.88681
   C       -5.62360       -32.03119        -1.64341
   F       -5.41770       -33.60659        -3.36973
   F       -4.03171       -31.82710        -4.88940
   C       -4.36801       -28.51438        -1.43419
   C       -4.81038       -28.16467        -0.18670
   C       -4.63710       -26.94018         0.59279
   C       -3.65812       -26.00552         0.36376
   C       -3.29507       -25.01238         1.29632
   N       -2.94011       -24.21368         2.03996
   C       -2.88374       -25.94439        -0.80955
   N       -2.26697       -25.81114        -1.76981
   H       -2.95820         2.76723         4.17380
   H       -4.04887        -0.49795         7.73997
   H       -3.70453         1.19205         2.46972
   H       -4.81255        -2.13518         6.01505
   H       -4.93940        -3.37627        -0.11055
   H       -6.23436        -5.53633         2.90125
   H       -8.32355        -6.32106         3.38682
   H       -8.96487        -6.42739         5.89095
   H       -6.95615        -8.57814         8.00218
   H       -8.33186        -9.59380         7.58457
   H       -8.58756        -7.89116         8.00097
   H       -5.94993        -7.27785        -2.77011
   H       -4.70172        -8.07766        -4.88580
   H       -3.12584        -9.98373        -5.69575
   H       -3.42798       -11.48903        -4.80495
   H       -2.03424       -10.49535        -4.39722
   H       -5.69157       -11.60185        -0.78107
   H       -7.19743       -18.15575         3.50350
   H       -6.05738       -18.99056         5.29272
   H       -7.29370       -19.02194         7.56851
   H       -9.09356       -20.37856         8.85960
   H       -8.98109       -22.09786         8.45155
   H      -10.27472       -21.12062         7.76796
   H       -3.58368       -20.00207        -0.57246
   H       -2.60206       -20.88185        -2.78398
   H       -2.94729       -22.84083        -4.51270
   H       -4.44896       -23.77059        -4.33583
   H       -2.99286       -24.27759        -3.47750
   H       -5.54329       -24.34951         0.43673
   H       -6.59670       -26.54964         3.43090
   H       -6.38292       -31.04716         0.75915
   H       -3.64395       -29.50754        -3.82263
   H       -6.17199       -32.74847        -1.05311
   H       -3.82098       -27.82704        -2.05942
*
