# ORCA input file
# SCF done       -264.121668930248          0.000576894751
! CAM-B3LYP def2-SVP def2/J RIJCOSX Grid4 TightSCF
%maxcore 5000
%tddft
    Mode sTDDFT
    Ethresh 5.0
    maxcore 5000
end

%pal
  nprocs 6
  end
* xyz 0 1
   C       -5.98966         1.30001        -6.77985
   C       -5.41850         1.48480        -8.00752
   F       -5.32737         2.71518        -8.52982
   C       -4.91869         0.38843        -8.73844
   F       -4.36374         0.59919        -9.94005
   C       -4.99626        -0.87815        -8.23087
   C       -5.57773        -1.10089        -6.96769
   C       -6.08460         0.00651        -6.22797
   C       -6.67135        -0.19177        -4.95719
   C       -6.74550        -1.45831        -4.43931
   C       -6.23292        -2.55631        -5.18418
   C       -5.66565        -2.39796        -6.41521
   C       -6.41534        -3.79787        -4.40832
   O       -6.10807        -4.91769        -4.76524
   C       -7.04078        -3.39306        -3.13765
   C       -7.27561        -1.96083        -3.17368
   C       -7.88795        -1.19178        -2.21762
   C       -8.42099        -1.65179        -0.99515
   N       -8.88251        -1.93389         0.01857
   C       -8.08408         0.20101        -2.33174
   N       -8.27585         1.33261        -2.35916
   C       -7.32375        -4.21572        -2.08151
   C       -7.10557        -5.59587        -1.90685
   C       -7.41609        -6.22202        -0.71079
   C       -7.10697        -7.58705        -0.67901
   C       -7.31429        -8.50526         0.38195
   C       -7.82335        -8.10581         1.67434
   C       -8.66568        -8.79978         2.50032
   C       -8.91665        -8.14607         3.72118
   C       -8.25877        -6.96071         3.84937
   S       -7.31777        -6.61939         2.43652
   C       -8.27620        -6.00759         4.98833
   C       -6.96330        -9.82167         0.12111
   C       -6.41116       -10.25846        -1.11211
   C       -6.22911        -9.34744        -2.17380
   C       -6.56561        -8.02036        -1.92016
   S       -6.42647        -6.71719        -3.06511
   C       -5.73097        -9.78987        -3.45730
   C       -6.04496       -10.93978        -4.13047
   C       -5.38839       -11.05565        -5.36947
   C       -4.56577       -10.00602        -5.64633
   S       -4.60023        -8.83230        -4.37329
   C       -3.71242        -9.79175        -6.84353
   C       -6.03213       -11.61942        -1.06755
   C       -6.29564       -12.22731         0.12814
   S       -7.04411       -11.12959         1.27125
   C       -6.01763       -13.58259         0.49289
   C       -6.31052       -14.10644         1.74030
   C       -6.02536       -15.42276         2.11706
   C       -5.41377       -16.33567         1.27464
   C       -5.10395       -15.84246        -0.02062
   C       -5.40172       -14.48741        -0.41508
   N       -4.99701       -14.35196        -1.66260
   O       -4.48451       -15.52811        -2.02173
   N       -4.53821       -16.43540        -1.05133
   C       -5.09396       -17.68396         1.64185
   C       -5.32406       -18.30671         2.83962
   C       -4.86558       -19.64073         2.88399
   C       -4.96808       -20.55170         3.95932
   C       -5.74751       -20.24351         5.13773
   C       -6.95327       -19.59885         5.19705
   C       -7.47724       -19.51216         6.50100
   C       -6.68057       -20.08364         7.44506
   S       -5.25141       -20.75462         6.72846
   C       -6.91052       -20.19417         8.90824
   C       -4.32922       -21.77136         3.78532
   C       -3.70099       -22.16317         2.57375
   C       -3.67313       -21.28108         1.46898
   C       -4.22956       -20.02080         1.67553
   S       -4.28673       -18.73194         0.50243
   C       -3.12005       -21.65349         0.18690
   C       -2.42974       -20.86917        -0.69815
   C       -2.08633       -21.53718        -1.88755
   C       -2.52249       -22.82678        -1.93349
   S       -3.36083       -23.24923        -0.47875
   C       -2.35507       -23.82257        -3.02292
   C       -3.13998       -23.45233         2.67442
   C       -3.35886       -24.06872         3.88219
   S       -4.23488       -23.02451         4.98521
   C       -2.84320       -25.33051         4.26567
   C       -3.14302       -26.07533         5.36411
   C       -2.16946       -27.08177         5.86500
   O       -1.23430       -27.55622         5.26340
   C       -2.55408       -27.31319         7.27492
   C       -1.91061       -28.04541         8.23023
   C       -2.44905       -28.09608         9.53595
   C       -3.64778       -27.38228         9.82756
   C       -4.17350       -27.43156        11.13428
   C       -3.54130       -28.15662        12.10475
   C       -2.35709       -28.86318        11.81506
   C       -1.82163       -28.83480        10.55801
   F       -1.75726       -29.56498        12.78704
   F       -4.04358       -28.20172        13.34649
   C       -4.29855       -26.64053         8.81528
   C       -3.76101       -26.61054         7.55698
   C       -4.22139       -25.97806         6.32506
   C       -5.51330       -25.61746         6.04782
   C       -5.96683       -25.34932         4.73767
   N       -6.38102       -25.20315         3.67741
   C       -6.53474       -25.56395         7.01532
   N       -7.38938       -25.47752         7.77695
   H       -6.36760         2.15011        -6.23358
   H       -4.60865        -1.70688        -8.80242
   H       -7.04372         0.66805        -4.42472
   H       -5.28587        -3.25057        -6.95735
   H       -7.76965        -3.75203        -1.20968
   H       -7.86365        -5.68500         0.10592
   H       -9.12571        -9.73160         2.22533
   H       -9.56467        -8.54374         4.48184
   H       -8.91326        -6.38895         5.78260
   H       -8.65299        -5.03575         4.67015
   H       -7.27093        -5.86020         5.38267
   H       -6.75893       -11.65841        -3.77032
   H       -5.52277       -11.89108        -6.03336
   H       -3.84957       -10.60719        -7.54959
   H       -2.66048        -9.74358        -6.56256
   H       -3.96875        -8.85277        -7.33294
   H       -5.54569       -12.13744        -1.87263
   H       -6.78233       -13.45992         2.46603
   H       -6.29319       -15.72779         3.11622
   H       -5.77871       -17.82127         3.68276
   H       -7.47501       -19.24667         4.32519
   H       -8.41978       -19.04690         6.72944
   H       -7.79969       -19.63465         9.18840
   H       -6.05752       -19.80750         9.46446
   H       -7.04970       -21.23712         9.19339
   H       -2.14052       -19.85544        -0.49015
   H       -1.53623       -21.07343        -2.68673
   H       -1.81774       -23.37538        -3.85546
   H       -3.32448       -24.17248        -3.37635
   H       -1.79839       -24.69034        -2.67013
   H       -2.59290       -23.93232         1.88362
   H       -2.02894       -25.70684         3.65417
   H       -1.00197       -28.57831         7.99475
   H       -5.08127       -26.89929        11.37190
   H       -0.91433       -29.38095        10.35246
   H       -5.20137       -26.10377         9.06027
*
