# ORCA input file
# SCF done       -197.514787022326          0.000459726928
! CAM-B3LYP def2-SVP def2/J RIJCOSX Grid4 TightSCF
%maxcore 5000
%tddft
    Mode sTDDFT
    Ethresh 5.0
    maxcore 5000
end

%pal
  nprocs 6
  end
* xyz 0 1
   C        0.43992         1.60365         3.42197
   C       -0.79068         1.51007         2.82351
   C       -1.26835         0.34373         2.19249
   N       -1.69607        -0.57315         1.65013
   C       -1.74777         2.54325         2.84471
   N       -2.56421         3.34999         2.86540
   C        1.34672         0.48348         3.65661
   C        2.24372         0.83982         4.70587
   C        3.18517        -0.03123         5.17248
   C        3.28386        -1.31537         4.59086
   C        2.40416        -1.67037         3.52755
   C        1.43121        -0.75079         3.07147
   C        2.52105        -2.95028         2.94886
   C        3.45808        -3.83975         3.39990
   C        4.32153        -3.49049         4.44883
   C        4.23600        -2.25529         5.03183
   C        1.97623         2.22639         5.12378
   O        2.49655         2.85401         6.01661
   C        0.95284         2.73505         4.16180
   C        0.76121         4.08051         4.07829
   C        0.18005         4.85930         3.05341
   C       -0.08037         4.54165         1.72853
   C       -0.60087         5.61991         1.02707
   C       -0.74426         6.78559         1.80326
   S       -0.20808         6.53518         3.41484
   C       -1.26885         7.84982         1.07267
   C       -1.53236         7.49340        -0.26125
   S       -1.12637         5.83568        -0.61805
   C       -2.03966         8.53521        -1.02392
   C       -2.15983         9.70454        -0.28592
   S       -1.64671         9.50748         1.37935
   C       -2.60309        10.96858        -0.75496
   C       -2.59901        12.09664         0.09598
   C       -2.96485        13.41058        -0.36167
   N       -2.91520        14.44160         0.48876
   C       -2.54404        14.25332         1.73088
   C       -2.18796        12.94240         2.18911
   N       -2.22437        11.92245         1.36774
   C       -1.79560        12.73680         3.53514
   N       -1.48120        12.60640         4.62848
   C       -2.50464        15.35744         2.61837
   N       -2.46516        16.22790         3.36129
   C       -3.37525        13.66482        -1.68948
   C       -3.43275        12.52984        -2.53210
   C       -3.04687        11.21027        -2.07645
   N       -3.16725        10.30459        -3.04768
   S       -3.70570        11.01741        -4.37882
   N       -3.81360        12.51255        -3.80989
   C       -3.67149        14.98557        -2.11758
   C       -4.11626        15.37862        -3.37195
   C       -4.26038        16.75593        -3.46104
   C       -3.91696        17.43333        -2.27791
   S       -3.44152        16.33972        -1.02745
   C       -4.04272        18.81416        -2.41133
   C       -4.49413        19.19397        -3.69185
   S       -4.75905        17.82829        -4.74172
   C       -4.61861        20.56475        -3.86430
   C       -4.26010        21.26427        -2.72144
   S       -3.75747        20.18294        -1.41721
   C       -4.17864        22.64325        -2.43733
   C       -4.61416        23.73522        -3.13433
   C       -4.40514        25.10267        -2.68131
   C       -3.45622        25.53101        -1.79057
   C       -3.28586        26.88003        -1.41392
   N       -3.09997        27.95812        -1.06618
   C       -2.48307        24.71342        -1.17673
   N       -1.64254        24.12181        -0.66461
   C       -5.31539        25.96356        -3.42414
   C       -5.96199        25.17743        -4.41894
   C       -5.50301        23.78072        -4.32349
   O       -5.81879        22.87610        -5.06825
   C       -6.86928        25.71517        -5.28578
   C       -7.18652        27.08833        -5.18560
   C       -6.55337        27.87887        -4.18326
   C       -5.61031        27.29573        -3.30616
   C       -6.88583        29.24526        -4.08538
   C       -7.79860        29.80634        -4.93647
   C       -8.41985        29.02779        -5.92437
   C       -8.11978        27.69812        -6.04682
   H        3.84814         0.25576         5.97506
   H        0.78266        -1.04307         2.26022
   H        1.85167        -3.21633         2.14398
   H        3.53854        -4.81833         2.95092
   H        5.05493        -4.20454         4.79235
   H        4.89821        -1.98026         5.83967
   H        1.19124         4.64402         4.90187
   H        0.14224         3.58817         1.28624
   H       -2.30859         8.47535        -2.06149
   H       -4.31238        14.67866        -4.16191
   H       -4.95387        21.04631        -4.76413
   H       -3.70808        22.84609        -1.48137
   H       -7.34272        25.09926        -6.03600
   H       -5.15172        27.91825        -2.55438
   H       -6.40327        29.84066        -3.32426
   H       -8.04702        30.85374        -4.85301
   H       -9.13790        29.48673        -6.58741
   H       -8.59539        27.09374        -6.80539
*
