# ORCA input file
# SCF done       -220.029494568199          0.000927033547
! CAM-B3LYP def2-SVP def2/J RIJCOSX Grid4 TightSCF
%maxcore 5000
%tddft
    Mode sTDDFT
    Ethresh 5.0
    maxcore 5000
end

%pal
  nprocs 6
  end
* xyz 0 1
   C       -0.49351         0.93748         2.24355
   C       -1.57108         1.61878         2.75060
   C       -2.88372         1.11437         2.76662
   N       -3.98254         0.77849         2.74400
   C       -1.48985         2.91591         3.29236
   N       -1.47883         3.96104         3.76828
   C       -0.47406        -0.48413         1.91641
   C        0.88233        -0.92148         1.87711
   C        1.21010        -2.22337         1.63251
   C        0.17943        -3.16302         1.40301
   C       -1.17771        -2.73028         1.42735
   C       -1.48757        -1.37561         1.68920
   C       -2.19579        -3.67703         1.19419
   C       -1.89086        -4.98866         0.95181
   C       -0.55427        -5.41373         0.92821
   C        0.45848        -4.52026         1.14910
   C        1.77276         0.22947         2.12194
   O        2.97779         0.22955         2.22044
   C        0.86944         1.41543         2.16352
   C        1.39468         2.65829         1.99951
   C        0.73877         3.86608         1.62657
   C       -0.45935         3.92249         0.87891
   C       -1.13554         5.15943         0.62570
   N       -2.39026         5.12253         0.12674
   C       -2.91720         3.99505        -0.24251
   C       -2.12862         2.79456        -0.22857
   N       -0.96455         2.78772         0.35251
   C       -2.61111         1.52943        -0.84792
   C       -4.33153         3.99386        -0.70858
   C       -0.57366         6.39827         0.98321
   C        0.68119         6.36107         1.61098
   C        1.32463         5.10961         1.93654
   N        2.49395         5.29829         2.55148
   S        2.76223         6.87431         2.67403
   N        1.42970         7.40826         1.97314
   C       -1.28635         7.63929         0.77178
   C       -1.96544         7.90489        -0.42843
   C       -2.73855         9.10167        -0.61529
   N       -3.48056         9.24699        -1.74000
   C       -3.40375         8.34494        -2.65497
   C       -2.53034         7.22582        -2.52472
   N       -1.85321         7.02025        -1.44936
   F       -2.39075         6.35270        -3.52561
   F       -4.16561         8.48390        -3.73931
   C       -2.79891        10.10034         0.36875
   C       -2.09531         9.85549         1.55846
   C       -1.35606         8.62887         1.76569
   N       -0.80645         8.58522         2.98272
   S       -1.13725         9.94869         3.74756
   N       -2.00243        10.67215         2.61381
   C       -3.56160        11.31784         0.18551
   C       -4.41149        11.80821         1.19514
   C       -5.12239        13.03779         1.03348
   N       -5.85943        13.51969         2.05768
   C       -5.94812        12.84348         3.16604
   C       -5.34700        11.54354         3.27310
   N       -4.60496        11.07435         2.31415
   C       -5.55522        10.68625         4.47457
   C       -6.71351        13.45567         4.28653
   C       -5.08883        13.77768        -0.17063
   C       -4.21351        13.30555        -1.16473
   C       -3.46315        12.08151        -0.98633
   N       -2.64118        11.85177        -2.01755
   S       -2.80736        13.03214        -3.08019
   N       -3.88832        13.91977        -2.30471
   C       -5.85216        14.98262        -0.25026
   C       -6.39681        15.54530        -1.35838
   C       -7.00158        16.86713        -1.42549
   C       -7.31763        17.68425        -0.37253
   C       -7.90203        18.96091        -0.51478
   N       -8.37000        20.00845        -0.56077
   C       -7.16229        17.37139         0.99515
   N       -7.08845        17.20978         2.13014
   C       -7.23909        17.16731        -2.83282
   C       -6.95078        16.00420        -3.60278
   C       -6.51226        14.91887        -2.70505
   O       -6.38595        13.74926        -2.98893
   C       -7.09390        15.98525        -4.95954
   C       -7.52070        17.15665        -5.62493
   C       -7.80276        18.32688        -4.86288
   C       -7.65927        18.31262        -3.45692
   C       -8.22551        19.49102        -5.53686
   C       -8.36288        19.50120        -6.89797
   C       -8.08506        18.34823        -7.64752
   C       -7.67330        17.20141        -7.02462
   H        2.24386        -2.53517         1.61544
   H       -2.52339        -1.07390         1.69669
   H       -3.22386        -3.34603         1.21659
   H       -2.67837        -5.70657         0.77764
   H       -0.33132        -6.45230         0.73450
   H        1.48964        -4.84164         1.13265
   H        2.47050         2.73527         2.12223
   H       -2.88795         1.69666        -1.88723
   H       -3.49325         1.17041        -0.31773
   H       -1.83012         0.77535        -0.79615
   H       -4.75199         4.98854        -0.59128
   H       -4.91742         3.28141        -0.12971
   H       -4.38420         3.70289        -1.75698
   H       -6.61805        10.53286         4.65401
   H       -5.13145        11.16594         5.35576
   H       -5.07102         9.72626         4.32108
   H       -7.02310        14.45771         4.00286
   H       -6.09985        13.50234         5.18444
   H       -7.59511        12.85745         4.51350
   H       -6.00747        15.45615         0.71096
   H       -6.87602        15.08869        -5.52066
   H       -7.88089        19.21444        -2.90857
   H       -8.43936        20.37550        -4.95481
   H       -8.68648        20.39785        -7.40510
   H       -8.19913        18.37367        -8.72102
   H       -7.45865        16.31064        -7.59685
*
