# ORCA input file
# SCF done       -176.302913060190          0.000748532601
! CAM-B3LYP def2-SVP def2/J RIJCOSX Grid4 TightSCF
%maxcore 5000
%tddft
    Mode sTDDFT
    Ethresh 5.0
    maxcore 5000
end

%pal
  nprocs 6
  end
* xyz 0 1
   C       -3.93831         3.33705         4.26536
   C       -5.01678         3.88856         3.62643
   C       -6.12384         4.44287         4.29952
   N       -7.04006         4.91388         4.80520
   C       -5.17194         3.87109         2.22464
   N       -5.34292         3.82692         1.09042
   C       -3.84441         3.06990         5.69470
   C       -2.88831         2.03104         5.89745
   C       -2.61761         1.54332         7.14359
   C       -3.29040         2.09091         8.25948
   C       -4.23306         3.14174         8.06322
   C       -4.50220         3.62058         6.76061
   C       -4.88827         3.68553         9.18658
   C       -4.62955         3.21346        10.44448
   C       -3.70345         2.17740        10.63693
   C       -3.04890         1.62790         9.56807
   C       -2.29692         1.65002         4.60148
   O       -1.50244         0.76911         4.36863
   C       -2.83749         2.64288         3.62659
   C       -2.21645         2.83440         2.43521
   C       -2.27958         3.96733         1.58237
   C       -1.95553         3.99919         0.24064
   C       -2.08285         5.27717        -0.29970
   C       -2.46034         6.24772         0.63855
   S       -2.68564         5.56532         2.19904
   C       -2.57035         7.52128         0.07581
   C       -2.28437         7.51640        -1.29778
   S       -1.86592         5.93685        -1.89600
   C       -2.40348         8.77106        -1.89472
   C       -2.77613         9.73120        -0.97766
   S       -2.98294         9.09689         0.63928
   C       -3.01534        11.10860        -1.19660
   N       -3.33949        11.94039        -0.25259
   C       -3.52763        13.16465        -0.74082
   C       -3.35019        13.32304        -2.12659
   S       -2.91094        11.81747        -2.83104
   N       -3.55318        14.54419        -2.61803
   C       -3.88635        15.37165        -1.67001
   S       -3.96998        14.66537        -0.03602
   C       -4.18983        16.73862        -1.89099
   C       -4.22284        17.37980        -3.11294
   C       -4.58517        18.71916        -2.97773
   C       -4.82436        19.10499        -1.64991
   S       -4.59892        17.79177        -0.55650
   C       -5.19564        20.44714        -1.54562
   C       -5.24642        21.08251        -2.79972
   S       -4.81948        20.01762        -4.11191
   C       -5.62718        22.41725        -2.74345
   C       -5.87527        22.83067        -1.44521
   S       -5.61225        21.52614        -0.27952
   C       -6.26214        24.07043        -0.89391
   C       -6.67576        25.23246        -1.48226
   C       -7.02830        26.42729        -0.72752
   C       -6.69874        26.70474         0.57346
   C       -7.05962        27.89557         1.23910
   N       -7.32378        28.83763         1.83937
   C       -5.92111        25.88795         1.42196
   N       -5.27813        25.29808         2.16895
   C       -7.72966        27.33411        -1.62710
   C       -7.70388        26.77582        -2.93561
   C       -7.00022        25.48258        -2.90946
   O       -6.76393        24.78563        -3.87481
   C       -8.27676        27.40619        -4.00236
   C       -8.92286        28.64644        -3.80265
   C       -8.96072        29.20883        -2.49401
   C       -8.35308        28.53447        -1.41011
   C       -9.61298        30.44425        -2.30491
   C      -10.19992        31.09422        -3.35629
   C      -10.16209        30.53944        -4.64427
   C       -9.53638        29.34208        -4.86287
   H       -1.89746         0.75002         7.27857
   H       -5.21269         4.42316         6.63645
   H       -5.60278         4.48068         9.03237
   H       -5.13763         3.63567        11.29849
   H       -3.51086         1.81730        11.63645
   H       -2.33464         0.83021         9.71074
   H       -1.52039         2.05684         2.13553
   H       -1.67908         3.12419        -0.31799
   H       -2.23308         8.97944        -2.93485
   H       -3.99863        16.88036        -4.03603
   H       -5.73156        23.06493        -3.59413
   H       -6.24860        24.06564         0.19034
   H       -8.23926        26.96208        -4.98603
   H       -8.40449        28.98398        -0.43134
   H       -9.63885        30.86764        -1.31159
   H      -10.69762        32.03967        -3.20102
   H      -10.63124        31.06546        -5.46224
   H       -9.50362        28.91007        -5.85239
*
