# ORCA input file
# SCF done       -217.677249071437          0.000758797992
! CAM-B3LYP def2-SVP def2/J RIJCOSX Grid4 TightSCF
%maxcore 5000
%tddft
    Mode sTDDFT
    Ethresh 5.0
    maxcore 5000
end

%pal
  nprocs 6
  end
* xyz 0 1
   C       -1.69329        12.92592        -4.77101
   C       -1.25366        12.12547        -5.79102
   C       -2.08361        11.65529        -6.82861
   N       -2.72772        11.22437        -7.67547
   C        0.09173        11.73710        -5.96372
   N        1.17623        11.43946        -6.19207
   C       -3.00311        13.56408        -4.69977
   C       -2.92158        14.66755        -3.80038
   C       -3.99382        15.47755        -3.56031
   C       -5.21987        15.20930        -4.20955
   C       -5.31211        14.09862        -5.09747
   C       -4.18307        13.28156        -5.33424
   C       -6.54350        13.83725        -5.73223
   C       -7.63184        14.63428        -5.50412
   C       -7.53994        15.72814        -4.63044
   C       -6.35973        16.00988        -3.99785
   C       -1.56686        14.72651        -3.22171
   O       -1.11202        15.55563        -2.46770
   C       -0.87971        13.49572        -3.71137
   C        0.23493        13.05719        -3.08011
   C        0.84181        11.75273        -3.12685
   C        2.21896        11.62873        -2.90081
   C        2.84537        10.40051        -2.94690
   C        2.08092         9.26853        -3.19309
   C        0.69107         9.37548        -3.38305
   C        0.07378        10.59874        -3.34944
   C        0.07805         8.01858        -3.63947
   C       -0.97588         7.66192        -2.58794
   C       -0.52118         7.95918        -5.04956
   C        1.28908         7.12014        -3.53682
   C        1.34882         5.75361        -3.65399
   C        2.58295         5.10663        -3.51693
   C        3.73251         5.86221        -3.26117
   C        3.67607         7.23695        -3.14886
   C        2.44883         7.87126        -3.28321
   C        2.66494         3.65438        -3.61832
   C        1.89846         2.91490        -4.53292
   C        1.92473         1.47394        -4.57291
   N        1.18850         0.82709        -5.51172
   C        0.46882         1.50836        -6.33339
   C        0.43284         2.93085        -6.28482
   N        1.12682         3.58878        -5.42326
   F       -0.31796         3.62398        -7.14073
   F       -0.23900         0.83736        -7.24290
   C        2.70712         0.71137        -3.68918
   C        3.52169         1.45087        -2.81301
   C        3.50353         2.89877        -2.78136
   N        4.32371         3.37926        -1.83865
   S        5.03165         2.15837        -1.08715
   N        4.35376         0.95315        -1.88975
   C        2.65938        -0.74497        -3.65105
   C        3.81183        -1.48531        -3.36121
   C        3.78103        -2.86338        -3.28910
   C        2.57850        -3.52099        -3.50968
   C        1.41930        -2.78760        -3.81320
   C        1.45119        -1.41692        -3.87738
   C        0.24044        -3.70870        -4.02752
   C       -0.89008        -3.41442        -3.03780
   C       -0.26633        -3.60702        -5.47032
   C        0.86520        -5.05979        -3.76339
   C        0.27542        -6.29704        -3.78025
   C        1.03666        -7.43111        -3.44592
   C        2.40596        -7.28925        -3.18492
   C        3.00941        -6.04839        -3.20388
   C        2.23557        -4.92691        -3.46953
   C        0.37028        -8.70656        -3.42497
   C        0.59179        -9.75088        -2.58530
   C       -0.09873       -11.03160        -2.64482
   C       -0.76851       -11.54071        -3.72542
   C       -1.39967       -12.80224        -3.73923
   N       -1.93615       -13.81473        -3.80995
   C       -0.89580       -10.90120        -4.97686
   N       -1.02933       -10.45552        -6.02663
   C        0.11601       -11.71652        -1.37786
   C        0.98939       -10.92550        -0.57969
   C        1.35946        -9.69798        -1.30852
   O        2.08487        -8.81764        -0.90167
   C        1.37382       -11.31373         0.67120
   C        0.89129       -12.53495         1.19210
   C        0.01071       -13.32948         0.40248
   C       -0.36897       -12.90170        -0.88999
   C       -0.47086       -14.54267         0.93569
   C       -0.10086       -14.95322         2.18725
   C        0.76711       -14.17053         2.96335
   C        1.25336       -12.98791         2.47598
   H       -3.90902        16.31284        -2.88116
   H       -4.28227        12.44232        -6.00510
   H       -6.60835        12.99589        -6.40652
   H       -8.57019        14.42656        -5.99619
   H       -8.40897        16.34623        -4.46134
   H       -6.28291        16.85092        -3.32432
   H        0.69103        13.77473        -2.40434
   H        2.79787        12.52276        -2.72180
   H        3.91080        10.32338        -2.79276
   H       -0.99805        10.68023        -3.46006
   H       -1.80324         8.36670        -2.62633
   H       -0.54041         7.69037        -1.59111
   H       -1.36402         6.66301        -2.77012
   H       -1.39361         8.60515        -5.12060
   H       -0.81988         6.94218        -5.28976
   H        0.21224         8.28737        -5.78274
   H        0.45699         5.17400        -3.82751
   H        4.67941         5.35563        -3.16473
   H        4.57371         7.80617        -2.96065
   H        4.74106        -0.96302        -3.20046
   H        4.67960        -3.41790        -3.06463
   H        0.55465        -0.85417        -4.07814
   H       -1.27924        -2.41232        -3.19942
   H       -0.52492        -3.48623        -2.01538
   H       -1.70135        -4.12642        -3.16824
   H       -0.62150        -2.60006        -5.67374
   H       -1.08153        -4.30717        -5.63560
   H        0.53623        -3.83658        -6.16762
   H       -0.77480        -6.41156        -4.00760
   H        3.00071        -8.16762        -2.99650
   H        4.06630        -5.95409        -3.00698
   H       -0.44498        -8.79959        -4.13430
   H        2.03838       -10.69523         1.25617
   H       -1.04349       -13.52080        -1.45996
   H       -1.13791       -15.14229         0.33382
   H       -0.47541       -15.88372         2.58685
   H        1.04813       -14.50943         3.94934
   H        1.92197       -12.38089         3.06880
*
