# ORCA input file
# SCF done       -238.931013327749          0.000732415091
! CAM-B3LYP def2-SVP def2/J RIJCOSX Grid4 TightSCF
%maxcore 5000
%tddft
    Mode sTDDFT
    Ethresh 5.0
    maxcore 5000
end

%pal
  nprocs 6
  end
* xyz 0 1
   C        2.01092         1.10366        -2.68650
   C        2.64491         1.08407        -3.90167
   C        3.24813        -0.06499        -4.45591
   N        3.75577        -0.95814        -4.96865
   C        2.83772         2.18445        -4.76425
   N        3.06174         3.01657        -5.52393
   C        1.92132        -0.03099        -1.77563
   C        1.35314         0.42050        -0.55254
   C        1.15384        -0.41798         0.50588
   C        1.51321        -1.77860         0.38329
   C        2.07223        -2.24220        -0.84227
   C        2.27208        -1.34755        -1.91857
   C        2.42051        -3.60343        -0.95736
   C        2.22838        -4.46613         0.08711
   C        1.67938        -4.00808         1.29410
   C        1.32965        -2.69302         1.43899
   C        1.03686         1.85618        -0.65189
   O        0.58016         2.53788         0.24302
   C        1.38072         2.24807        -2.04153
   C        1.08498         3.40596        -2.70469
   C        0.49280         4.61325        -2.27179
   C        0.13267         5.07963        -1.03117
   C       -0.41763         6.37576        -1.04604
   C       -0.86520         7.13482         0.05986
   C       -0.73844         6.66949         1.42270
   C       -1.62702         6.82635         2.45248
   C       -1.17107         6.28573         3.66832
   C        0.07098         5.73192         3.58478
   S        0.69913         5.85450         1.97820
   C        0.86804         5.08022         4.65601
   C       -1.42123         8.37690        -0.22978
   C       -1.50996         8.90249        -1.54508
   C       -1.02879         8.16401        -2.64621
   C       -0.51023         6.90522        -2.36241
   S        0.14517         5.79948        -3.52940
   C       -1.03482         8.67807        -4.00069
   C       -1.29474         7.99967        -5.15832
   C       -1.15009         8.78933        -6.31599
   C       -0.76475        10.06804        -6.05777
   S       -0.58707        10.32775        -4.35300
   C       -0.50489        11.17166        -7.01809
   C       -2.11279        10.18238        -1.55640
   C       -2.43996        10.63848        -0.31278
   S       -2.03805         9.50410         0.94840
   C       -3.04649        11.88454         0.06659
   C       -3.45479        12.86582        -0.85161
   N       -3.96088        14.00932        -0.45854
   C       -4.09754        14.22939         0.85597
   C       -3.73344        13.22941         1.77177
   N       -3.21526        12.09038         1.37933
   C       -4.61850        15.51506         1.23066
   C       -4.78027        16.06019         2.47103
   C       -5.29578        17.37808         2.44095
   C       -5.60194        18.20850         3.53924
   C       -5.29642        17.80547         4.89676
   C       -4.15936        17.20692         5.36326
   C       -4.18593        16.96629         6.75120
   C       -5.33986        17.37076         7.34883
   S       -6.42489        18.07633         6.19622
   C       -5.72327        17.27730         8.78125
   C       -6.18644        19.43332         3.24208
   C       -6.44965        19.87026         1.91479
   C       -6.13813        19.03823         0.81433
   C       -5.55063        17.81311         1.11489
   S       -5.10114        16.59617        -0.04964
   C       -6.42579        19.41759        -0.55023
   C       -5.67705        19.17284        -1.67023
   C       -6.27498        19.64280        -2.85349
   C       -7.48820        20.22965        -2.65313
   S       -7.91034        20.22641        -0.97627
   C       -8.40155        20.83471        -3.65674
   C       -6.95903        21.18205         1.88002
   C       -7.11013        21.75413         3.11974
   S       -6.62450        20.64755         4.40308
   C       -7.58994        23.01746         3.53142
   C       -7.91199        24.14068         2.82184
   C       -8.40314        25.36151         3.44726
   C       -8.88613        25.50071         4.72248
   C       -9.36119        26.71811         5.25489
   N       -9.75980        27.67328         5.75210
   C       -9.02792        24.47445         5.68099
   N       -9.19923        23.70833         6.51962
   C       -8.36510        26.42463         2.45024
   C       -7.96660        25.85858         1.20807
   C       -7.71600        24.41653         1.37659
   O       -7.40501        23.65106         0.48690
   C       -7.84764        26.60965         0.07464
   C       -8.11974        27.99441         0.13509
   C       -8.51109        28.57204         1.37709
   C       -8.63089        27.76608         2.53259
   C       -8.77457        29.95606         1.42838
   C       -8.65803        30.73322         0.30829
   C       -8.27288        30.16305        -0.91426
   C       -8.01003        28.82278        -0.99900
   H        0.72310        -0.04762         1.42444
   H        2.69311        -1.73215        -2.83360
   H        2.84423        -3.95088        -1.88822
   H        2.49855        -5.50691        -0.01094
   H        1.53452        -4.70262         2.10813
   H        0.90585        -2.33459         2.36584
   H        1.31814         3.41642        -3.76353
   H        0.25369         4.48596        -0.14472
   H       -2.59522         7.27738         2.33327
   H       -1.74586         6.30757         4.57716
   H        1.79590         5.62491         4.83119
   H        1.12961         4.06161         4.37112
   H        0.29733         5.05330         5.58123
   H       -1.61586         6.97423        -5.18218
   H       -1.32329         8.41627        -7.30963
   H       -0.66870        10.82359        -8.03503
   H        0.52216        11.52517        -6.92878
   H       -1.16518        12.01679        -6.82405
   H       -2.30005        10.73892        -2.45542
   H       -3.36721        12.72401        -1.91916
   H       -3.86416        13.35291         2.83744
   H       -4.55932        15.53751         3.38301
   H       -3.31051        16.98859         4.73962
   H       -3.37238        16.51052         7.28759
   H       -4.93209        16.79186         9.34767
   H       -6.64304        16.70477         8.89750
   H       -5.89598        18.26980         9.19676
   H       -4.70854        18.70775        -1.64303
   H       -5.82029        19.54750        -3.82356
   H       -7.98186        20.72956        -4.65433
   H       -8.55069        21.89362        -3.44631
   H       -9.37760        20.35071        -3.63161
   H       -7.19143        21.71446         0.97736
   H       -7.68423        23.09476         4.60881
   H       -7.54460        26.15265        -0.85584
   H       -8.92448        28.23632         3.45732
   H       -9.07189        30.39019         2.37172
   H       -8.86192        31.79236         0.35803
   H       -8.18536        30.79121        -1.78824
   H       -7.71281        28.37793        -1.93757
*
