# ORCA input file
# SCF done       -198.423256290141          0.000279810113
! CAM-B3LYP def2-SVP def2/J RIJCOSX Grid4 TightSCF
%maxcore 5000
%tddft
    Mode sTDDFT
    Ethresh 5.0
    maxcore 5000
end

%pal
  nprocs 6
  end
* xyz 0 1
   C       -0.15193         3.89859         4.96548
   C       -1.46954         4.27372         4.99586
   C       -2.11859         4.75702         6.14955
   N       -2.68366         5.17148         7.05846
   C       -2.33399         4.13158         3.89130
   N       -3.06578         3.99732         3.01696
   C        0.71540         3.75770         6.12827
   C        1.76996         2.85612         5.79743
   C        2.72236         2.50469         6.71022
   C        2.66904         3.05797         8.00973
   C        1.62592         3.97140         8.34020
   C        0.64683         4.31023         7.37827
   C        1.59082         4.52231         9.63721
   C        2.53811         4.18715        10.56597
   C        3.56392         3.28721        10.24048
   C        3.62739         2.73402         8.99029
   C        1.63706         2.44345         4.38846
   O        2.30470         1.64631         3.77291
   C        0.53214         3.28857         3.84361
   C        0.41641         3.45299         2.50008
   C       -0.21306         4.49561         1.77681
   C       -0.53448         4.47100         0.42848
   C       -1.07495         5.67746        -0.00766
   C       -1.13435         6.64553         1.01296
   S       -0.54576         6.06812         2.49911
   C       -1.67626         7.84009         0.47967
   C       -1.96437         7.62956        -0.88260
   C       -1.59704         6.26434        -1.23209
   C       -1.71312         5.66585        -2.45118
   C       -2.23769         6.34351        -3.57294
   N       -2.65973         6.89211        -4.48657
   C       -1.30760         4.33253        -2.67651
   N       -0.97080         3.25377        -2.86782
   C       -2.50166         8.75790        -1.49888
   C       -2.62129         9.81137        -0.60933
   S       -2.06975         9.41476         1.00440
   C       -3.11328        11.11640        -0.83969
   N       -3.20107        12.01292         0.10087
   C       -3.68842        13.15346        -0.37784
   C       -3.99940        13.17878        -1.75097
   S       -3.64933        11.64912        -2.45321
   N       -4.48416        14.32268        -2.22887
   C       -4.57671        15.21505        -1.28655
   S       -4.04246        14.67454         0.32945
   C       -5.06024        16.53079        -1.48420
   C       -5.45390        17.09679        -2.68634
   C       -5.88143        18.41173        -2.51700
   C       -5.81315        18.83795        -1.17673
   S       -5.21799        17.62857        -0.13073
   C       -6.27583        20.17215        -1.09890
   C       -6.63760        20.59992        -2.39611
   C       -6.39254        19.50926        -3.32831
   C       -6.58510        19.50760        -4.67690
   C       -7.06970        20.62407        -5.39478
   N       -7.45362        21.50754        -6.01519
   C       -6.30087        18.37575        -5.47288
   N       -6.07327        17.46492        -6.13041
   C       -7.12059        21.90200        -2.42461
   C       -7.13668        22.48232        -1.16213
   S       -6.52573        21.37144         0.07525
   C       -7.52957        23.74845        -0.67925
   C       -8.07438        24.83664        -1.30079
   C       -8.41239        26.07443        -0.60926
   C       -8.17972        26.38504         0.70623
   C       -8.53878        27.61307         1.30339
   N       -8.79979        28.58194         1.86119
   C       -7.55064        25.56904         1.67012
   N       -7.04759        24.98410         2.52188
   C       -9.03923        26.96930        -1.57479
   C       -9.06548        26.32219        -2.84149
   C       -8.46453        24.98510        -2.72714
   O       -8.33538        24.18557        -3.63018
   C       -9.59007        26.91861        -3.95180
   C      -10.12754        28.22013        -3.84308
   C      -10.11047        28.87559        -2.57787
   C       -9.55862        28.23125        -1.44713
   C      -10.65172        30.17367        -2.47873
   C      -11.18333        30.79581        -3.57539
   C      -11.19858        30.14965        -4.82066
   C      -10.68198        28.88909        -4.95181
   H        3.50887         1.81395         6.44505
   H       -0.12778         5.01132         7.64819
   H        0.79706         5.21203         9.88385
   H        2.50189         4.61357        11.55719
   H        4.30377         3.03469        10.98514
   H        4.41498         2.04052         8.73441
   H        0.95789         2.73139         1.89522
   H       -0.39654         3.59661        -0.18164
   H       -2.79612         8.82931        -2.53050
   H       -5.41735        16.55223        -3.61155
   H       -7.45657        22.42764        -3.30134
   H       -7.36668        23.84816         0.38748
   H       -9.59353        26.40133        -4.89970
   H       -9.56397        28.75705        -0.50603
   H      -10.63722        30.66735        -1.51810
   H      -11.59519        31.79012        -3.48929
   H      -11.62184        30.65576        -5.67534
   H      -10.69078        28.38611        -5.90763
*
