# ORCA input file
# SCF done       -200.990581744172          0.000313378664
! CAM-B3LYP def2-SVP def2/J RIJCOSX Grid4 TightSCF
%maxcore 5000
%tddft
    Mode sTDDFT
    Ethresh 5.0
    maxcore 5000
end

%pal
  nprocs 6
  end
* xyz 0 1
   C        3.31274         4.05320        -3.57214
   C        3.91886         5.23759        -3.24370
   C        4.63104         6.03352        -4.16315
   N        5.20765         6.72148        -4.87829
   C        3.96893         5.73831        -1.92685
   N        4.05503         6.15235        -0.85949
   C        3.46415         3.34833        -4.83890
   C        3.16971         1.96907        -4.62609
   C        3.26630         1.05356        -5.63419
   C        3.65739         1.48499        -6.92199
   C        3.93835         2.86473        -7.14316
   C        3.83704         3.79018        -6.07923
   C        4.32145         3.28170        -8.43404
   C        4.42545         2.38069        -9.45855
   C        4.14928         1.02269        -9.24014
   C        3.77416         0.58438        -7.99910
   C        2.76197         1.76644        -3.22422
   O        2.49468         0.73051        -2.66202
   C        2.67316         3.14084        -2.64631
   C        1.97481         3.34196        -1.49875
   C        1.39450         4.53568        -1.00297
   C        0.98704         4.76153         0.30222
   C        0.39368         6.01046         0.46043
   C        0.30915         6.72984        -0.74703
   S        0.98107         5.88390        -2.05982
   C       -0.33291         7.96872        -0.49927
   C       -0.64299         8.03792         0.87413
   C       -0.20017         6.81225         1.51929
   C       -0.33011         6.47993         2.83520
   C       -0.93722         7.34301         3.77280
   N       -1.43472         8.03301         4.54130
   C        0.11944         5.24391         3.34744
   N        0.47317         4.23729         3.76642
   C       -1.28849         9.22342         1.21905
   C       -1.46934        10.03567         0.11534
   S       -0.83591         9.35049        -1.36354
   C       -2.12458        11.29933         0.04063
   N       -2.23445        11.85091        -1.15945
   N       -2.85884        12.96429        -1.37127
   C       -3.44378        13.66136        -0.40770
   C       -3.36571        13.19929         0.93703
   C       -2.67957        11.96475         1.17063
   N       -2.67771        11.62978         2.45729
   S       -3.46028        12.76168         3.28859
   N       -3.84269        13.72627         2.06061
   C       -4.16058        14.83015        -0.79721
   C       -4.89965        15.68990        -0.00681
   C       -5.51612        16.67743        -0.77225
   C       -5.22744        16.55768        -2.14742
   S       -4.20178        15.23942        -2.49702
   C       -5.93076        17.57427        -2.84066
   C       -6.67245        18.32830        -1.90694
   C       -6.41263        17.80494        -0.57466
   C       -6.89872        18.27493         0.60916
   C       -7.73516        19.40949         0.69413
   N       -8.39629        20.34081         0.78984
   C       -6.57879        17.66935         1.84362
   N       -6.32721        17.18142         2.85014
   C       -7.46122        19.30734        -2.49907
   C       -7.33081        19.31465        -3.88038
   S       -6.16676        18.10836        -4.43675
   C       -7.94433        20.12183        -4.86462
   C       -9.14227        20.77168        -4.78760
   C       -9.68068        21.64333        -5.81710
   C       -8.96298        22.26629        -6.80458
   C       -9.53125        23.12499        -7.76849
   N       -9.93749        23.82482        -8.58267
   C       -7.56528        22.16678        -6.96838
   N       -6.43080        22.14579        -7.14535
   C      -11.10476        21.81042        -5.56122
   C      -11.42640        21.13624        -4.34899
   C      -10.21868        20.50188        -3.79573
   O      -10.15411        19.83760        -2.78398
   C      -12.69593        21.11737        -3.84757
   C      -13.72371        21.78186        -4.55309
   C      -13.41245        22.45124        -5.77213
   C      -12.08689        22.45675        -6.26418
   C      -14.44875        23.10128        -6.47270
   C      -15.73052        23.09269        -5.99347
   C      -16.03518        22.43524        -4.79223
   C      -15.05284        21.79468        -4.08670
   H        3.04748         0.01180        -5.45268
   H        4.04498         4.83105        -6.27326
   H        4.53626         4.32772        -8.59611
   H        4.72181         2.70956       -10.44327
   H        4.23522         0.32559       -10.06012
   H        3.56065        -0.46010        -7.82532
   H        1.76149         2.44706        -0.92113
   H        1.15064         4.04822         1.08976
   H       -1.62154         9.50381         2.20200
   H       -4.97478        15.57227         1.05913
   H       -8.09637        19.98924        -1.96648
   H       -7.40653        20.16938        -5.80474
   H      -12.91218        20.60112        -2.92407
   H      -11.88374        22.96582        -7.19306
   H      -14.20930        23.60771        -7.39618
   H      -16.51727        23.59305        -6.53784
   H      -17.05195        22.43828        -4.42899
   H      -15.28086        21.28656        -3.16119
*
