# ORCA input file
# SCF done       -216.308348856468          0.000469690321
! CAM-B3LYP def2-SVP def2/J RIJCOSX Grid4 TightSCF
%maxcore 5000
%tddft
    Mode sTDDFT
    Ethresh 5.0
    maxcore 5000
end

%pal
  nprocs 6
  end
* xyz 0 1
   C       -2.42371         0.81342         1.54199
   C       -1.19594         0.47415         0.76816
   N       -1.19297         0.21365        -0.51984
   S        0.32772        -0.09761        -0.99938
   N        1.02737         0.09911         0.45279
   C        0.10527         0.40626         1.33591
   C        0.38557         0.61592         2.78787
   C       -0.72392         1.44287         3.36228
   C       -2.02633         1.50792         2.79917
   N       -2.83676         2.26554         3.50331
   S       -2.03694         2.85485         4.78882
   N       -0.61161         2.14850         4.46388
   C        0.39682        -0.70637         3.50479
   C       -0.24795        -1.84105         3.15267
   C       -0.07092        -2.90493         4.08274
   C       -0.56296        -4.21839         3.99260
   C       -1.27936        -4.67260         2.81706
   C       -0.98646        -4.43055         1.50450
   C       -1.89516        -5.03105         0.60948
   C       -2.88566        -5.72649         1.23082
   S       -2.70678        -5.66097         2.95472
   C       -4.01242        -6.48086         0.62130
   C       -0.30777        -5.05071         5.07764
   C        0.44698        -4.64224         6.20459
   C        0.99695        -3.34473         6.26537
   C        0.69951        -2.50239         5.19753
   S        1.23837        -0.85076         5.02076
   C        1.84754        -2.90455         7.35110
   C        1.90739        -1.66990         7.93475
   C        2.89970        -1.56684         8.92970
   C        3.61501        -2.71067         9.10550
   S        3.05748        -3.95789         8.03879
   C        4.73680        -2.97123        10.04490
   C        0.52732        -5.67066         7.17294
   C       -0.09090        -6.83059         6.79897
   S       -0.81593        -6.71072         5.21534
   C       -0.19627        -8.05165         7.54705
   C        0.17848        -8.16985         8.87334
   C        0.05594        -9.37161         9.56955
   F        0.44967        -9.34296        10.85999
   C       -0.42055       -10.56108         9.03482
   C       -0.80735       -10.46972         7.66886
   C       -0.70812        -9.22935         6.94500
   N       -1.13633        -9.34501         5.69189
   S       -1.62035       -10.85524         5.44107
   N       -1.30758       -11.43957         6.90494
   C       -0.54285       -11.78867         9.77280
   C       -0.79208       -13.02555         9.24963
   C       -0.89249       -14.04857        10.22034
   C       -1.10474       -15.42702        10.01158
   C       -1.31136       -16.00047         8.69815
   C       -0.85907       -17.20265         8.22865
   C       -1.27538       -17.48310         6.91264
   C       -2.05717       -16.50909         6.37271
   S       -2.28776       -15.20640         7.49185
   C       -2.66991       -16.45566         5.01932
   C       -1.12014       -16.22250        11.15300
   C       -0.95166       -15.71855        12.46258
   C       -0.71894       -14.34787        12.66743
   C       -0.70429       -13.54543        11.53086
   S       -0.40427       -11.83403        11.51783
   C       -0.50209       -13.81113        13.99667
   C        0.27853       -14.31833        14.99602
   C        0.26182       -13.53447        16.16767
   C       -0.53443       -12.43557        16.07215
   S       -1.27735       -12.33807        14.50895
   C       -0.80541       -11.39405        17.09745
   C       -1.10677       -16.73729        13.44810
   C       -1.36529       -17.95470        12.92639
   S       -1.42478       -17.94094        11.18093
   C       -1.54266       -19.25395        13.65932
   C       -0.32435       -20.09512        13.43231
   N        0.78374       -19.97069        14.12563
   S        1.88631       -21.01810        13.55305
   N        0.95002       -21.66140        12.39136
   C       -0.22903       -21.08243        12.41466
   C       -1.34590       -21.43161        11.49261
   C       -2.63018       -20.98767        12.10415
   C       -2.72234       -19.99621        13.11797
   N       -3.95764       -19.78183        13.50777
   S       -4.95361       -20.74974        12.66578
   N       -3.80437       -21.47779        11.77764
   H       -2.97094        -0.10464         1.78769
   H       -3.09690         1.43614         0.94973
   H        1.34915         1.11215         2.93609
   H       -0.84501        -1.93761         2.26416
   H       -0.11999        -3.87738         1.18727
   H       -1.81203        -4.94973        -0.46008
   H       -4.96951        -6.08138         0.95619
   H       -3.97088        -7.53061         0.91105
   H       -3.96282        -6.41268        -0.46289
   H        1.23756        -0.86662         7.68702
   H        3.07635        -0.66956         9.49589
   H        4.88938        -2.10873        10.68913
   H        5.65918        -3.16666         9.49752
   H        4.52777        -3.84291        10.66410
   H        1.02559        -5.55076         8.11626
   H        0.56984        -7.32365         9.41405
   H       -0.88913       -13.18213         8.19294
   H       -0.21199       -17.85013         8.79257
   H       -1.00149       -18.37947         6.38473
   H       -2.43600       -17.36453         4.46991
   H       -2.29179       -15.59943         4.46052
   H       -3.75267       -16.35494         5.08964
   H        0.87838       -15.20394        14.88190
   H        0.82510       -13.77961        17.05086
   H       -0.25507       -11.61616        18.00863
   H       -1.86925       -11.35102        17.33023
   H       -0.50482       -10.41161        16.73432
   H       -1.05015       -16.54994        14.50430
   H       -1.67039       -19.03577        14.72334
   H       -1.36117       -22.50265        11.28386
   H       -1.20389       -20.91604        10.53540
*
