# ORCA input file
# SCF done       -166.096693525303          0.000813076611
! CAM-B3LYP def2-SVP def2/J RIJCOSX Grid4 TightSCF
%maxcore 5000
%tddft
    Mode sTDDFT
    Ethresh 5.0
    maxcore 5000
end

%pal
  nprocs 6
  end
* xyz 0 1
   C        8.34204        -2.70807        -6.71403
   C        8.38755        -2.51457        -8.05934
   S       10.00294        -2.64814        -8.65323
   C       10.63379        -2.97930        -7.05731
  Cl       12.28354        -3.25337        -6.79674
   C        9.62679        -2.97379        -6.13762
   C        9.49541        -3.18154        -4.69243
   O       10.36315        -3.47852        -3.90510
   C        8.05239        -2.92726        -4.40566
   C        7.34286        -2.75017        -5.66564
   C        5.98968        -2.71919        -5.86576
   C        5.44887        -2.53731        -7.15683
   N        5.00091        -2.38269        -8.20136
   C        5.00796        -2.93774        -4.87567
   N        4.16025        -3.16477        -4.13685
   C        7.49618        -2.71341        -3.17962
   C        8.05754        -2.85854        -1.88971
   S        9.52219        -3.69927        -1.46949
   C        9.24548        -3.48323         0.32706
   O        9.94315        -4.02048         1.13898
   C        8.06704        -2.65330         0.47479
   C        7.41180        -2.38349        -0.74769
   C        6.17873        -1.65336        -0.62721
   O        5.42209        -1.21633        -1.44499
   S        5.88301        -1.43775         1.17581
   C        7.40589        -2.18660         1.60186
   C        7.93306        -2.18599         2.91845
   N        7.23079        -2.26396         4.09274
   C        5.82048        -2.53268         4.24490
   C        5.46300        -3.95049         3.81186
   C        8.08747        -2.21077         5.21605
   O        7.70137        -2.29565         6.36002
   C        9.40462        -2.03012         4.64357
   C        9.28027        -2.02899         3.24082
   C       10.58532        -1.73338         2.68260
   O       10.96043        -1.53197         1.55185
   N       11.43678        -1.64920         3.80981
   C       12.85252        -1.46346         3.60131
   C       13.59777        -2.79635         3.62436
   C       10.74557        -1.81920         4.98271
   C       11.19005        -1.76135         6.32769
   C       12.45573        -1.68334         6.81753
   C       12.71124        -1.59660         8.17424
   C       12.96720        -1.49139         9.36398
   C       13.24933        -1.35955        10.66326
   C       13.48277        -1.19379        11.85223
   C       13.80439        -1.08781        13.18604
   C       13.03401        -0.61083        14.20213
   C       13.48133        -0.85579        15.60948
   O       14.56883        -1.25450        15.95182
   C       12.30287        -0.54832        16.42509
   C       11.95501        -0.59944        17.74191
   S       10.30311        -0.07054        17.95909
   C       10.10657         0.22165        16.26936
   C       11.24223        -0.07539        15.58292
   C       11.71484        -0.00780        14.21103
   C       11.05683         0.63013        13.19344
   C        9.75331         1.14078        13.37729
   N        8.68872         1.54531        13.51291
   C       11.59998         0.95497        11.93603
   N       12.00110         1.32016        10.92462
  Cl       12.90527        -1.08651        19.05659
   H        7.59093        -2.29813        -8.74317
   H        6.47492        -2.34451        -3.15761
   H        5.24366        -1.79960         3.67480
   H        5.60989        -2.40179         5.31003
   H        5.68341        -4.10165         2.75758
   H        4.40308        -4.12433         3.97204
   H        6.02800        -4.67534         4.39315
   H       13.24546        -0.75771         4.33693
   H       12.95094        -1.01756         2.60680
   H       13.46009        -3.31467         4.57111
   H       14.65946        -2.63026         3.46336
   H       13.22065        -3.43478         2.82920
   H       10.37351        -1.79882         7.03917
   H       13.33004        -1.69234         6.18255
   H       14.77110        -1.49067        13.48096
   H        9.16600         0.58426        15.90486
*
