# ORCA input file
# SCF done       -159.901996776099          0.000590394387
! CAM-B3LYP def2-SVP def2/J RIJCOSX Grid4 TightSCF
%maxcore 5000
%tddft
    Mode sTDDFT
    Ethresh 5.0
    maxcore 5000
end

%pal
  nprocs 6
  end
* xyz 0 1
   C        9.40378         1.84605         1.44864
   C       10.26399         2.88643         1.61071
   S       11.23998         3.11552         0.20440
   C       10.47445         1.78191        -0.62453
  Cl       10.92562         1.33910        -2.19547
   C        9.52294         1.21238         0.16906
   C        8.56457         0.11350         0.07847
   O        8.38055        -0.63533        -0.86498
   C        7.85998         0.09755         1.37431
   C        8.36822         1.17332         2.21194
   C        7.97661         1.53952         3.47139
   C        8.58418         2.62679         4.13569
   N        9.06545         3.50902         4.68878
   C        6.96460         0.93188         4.24214
   N        6.15237         0.49317         4.92415
   C        6.88985        -0.80157         1.72640
   C        6.33336        -1.85257         0.97562
   C        5.32235        -2.67607         1.48297
   F        4.83049        -2.51125         2.70978
   C        4.87434        -3.64956         0.59877
   F        3.85589        -4.46222         0.86386
   C        5.52443        -3.60173        -0.63085
   S        6.70636        -2.32940        -0.65611
   C        5.27823        -4.49811        -1.70894
   N        5.37065        -4.18866        -3.04480
   C        5.76491        -2.93630        -3.64488
   C        7.26434        -2.88745        -3.92192
   C        4.98196        -5.27118        -3.85391
   O        4.95312        -5.22370        -5.06921
   C        4.66214        -6.32395        -2.92106
   C        4.86146        -5.82109        -1.61104
   C        4.64864        -6.90997        -0.67539
   O        4.79800        -7.00625         0.51912
   N        4.25603        -7.99122        -1.49849
   C        3.86763        -9.25542        -0.92196
   C        2.34977        -9.39218        -0.83111
   C        4.25980        -7.65740        -2.82824
   C        3.90144        -8.54636        -3.87308
   C        3.89774        -8.16145        -5.17712
   C        3.51204        -8.98626        -6.21383
   C        3.15019        -9.67576        -7.15609
   C        2.74894       -10.41507        -8.19334
   C        2.34009       -11.04188        -9.16113
   C        1.97134       -11.79654       -10.25063
   C        1.39417       -11.36155       -11.40537
   C        1.35946       -12.28299       -12.58246
   O        1.59266       -13.46816       -12.56909
   C        1.03517       -11.41138       -13.71698
   C        0.90382       -11.53211       -15.06789
   S        0.50391        -9.98845       -15.78475
   C        0.51122        -9.20114       -14.24844
   C        0.80822       -10.07430       -13.24954
   C        0.92182       -10.04952       -11.80181
   C        0.52067        -9.00872       -11.00703
   C        0.11568        -7.77806       -11.56717
   N       -0.20411        -6.76944       -12.01034
   C        0.34846        -9.06302        -9.61099
   N        0.10891        -9.06329        -8.48854
  Cl        1.07897       -12.92489       -16.01602
   H       10.39778         3.53607         2.45270
   H        6.46603        -0.71683         2.72124
   H        5.46492        -2.11094        -2.99632
   H        5.22102        -2.86785        -4.59187
   H        7.83415        -2.96102        -2.99923
   H        7.51290        -1.94719        -4.40454
   H        7.54458        -3.70489        -4.58168
   H        4.29727        -9.27206         0.08370
   H        4.30098       -10.07351        -1.50403
   H        1.94321        -8.59283        -0.21661
   H        2.09320       -10.34467        -0.37601
   H        1.89110        -9.33938        -1.81618
   H        3.60336        -9.55212        -3.61230
   H        4.18904        -7.15223        -5.45160
   H        2.23074       -12.85231       -10.22124
   H        0.30290        -8.15103       -14.19488
*
