# ORCA input file
# SCF done       -172.537457855718          0.000763844332
! CAM-B3LYP def2-SVP def2/J RIJCOSX Grid4 TightSCF
%maxcore 5000
%tddft
    Mode sTDDFT
    Ethresh 5.0
    maxcore 5000
end

%pal
  nprocs 6
  end
* xyz 0 1
   C        5.49633        -2.53686         6.02652
   C        5.50743        -2.68069         7.38026
   S        6.14156        -4.21753         7.83889
   C        6.40660        -4.67874         6.17408
  Cl        7.06162        -6.18533         5.76761
   C        6.00948        -3.68000         5.33553
   C        5.98331        -3.44911         3.88886
   O        6.45381        -4.16030         3.03240
   C        5.31949        -2.11563         3.72755
   C        5.10966        -1.53518         5.05460
   C        4.64820        -0.28905         5.38205
   C        4.49982         0.10258         6.73123
   N        4.36731         0.44114         7.81887
   C        4.29327         0.74602         4.49264
   N        3.99732         1.64149         3.83768
   C        4.91459        -1.50240         2.58210
   C        4.90306        -1.94836         1.23353
   S        4.27119        -0.83798         0.04552
   C        4.45246        -2.00150        -1.21811
   C        3.89884        -1.69962        -2.51912
   O        3.86232        -2.45711        -3.45905
   C        5.00034        -3.19310        -0.73716
   C        5.23566        -3.15068         0.64624
   C        5.21686        -4.43352        -1.45158
   N        5.87026        -4.63725        -2.63240
   C        6.63829        -3.68196        -3.39342
   C        7.78544        -3.09126        -2.57984
   C        5.86889        -6.00604        -2.98682
   O        6.40930        -6.43433        -3.98803
   C        5.14543        -6.65854        -1.92227
   C        4.78335        -5.65712        -0.97855
   C        4.04826        -6.28708         0.09517
   O        3.53889        -5.84856         1.10488
   N        4.01994        -7.64778        -0.26994
   C        3.42364        -8.63674         0.59518
   C        4.47817        -9.39917         1.39390
   C        4.66334        -7.87926        -1.46378
   C        4.75223        -9.16572        -2.06797
   C        5.35569        -9.34992        -3.26369
   C        5.46533       -10.59163        -3.98396
   C        5.79622       -10.54335        -5.34474
   C        5.84643       -11.68744        -6.10320
   F        6.16497       -11.57413        -7.40858
   C        5.62418       -12.96193        -5.56311
   C        5.37912       -13.02155        -4.18824
   C        5.27471       -11.87243        -3.44040
   F        5.01747       -12.01785        -2.12609
   C        5.71266       -14.17937        -6.33219
   C        5.35559       -14.42190        -7.61222
   C        5.87723       -15.66481        -8.27830
   O        6.41258       -16.59547        -7.72869
   C        5.62496       -15.44545        -9.70473
   C        5.90168       -16.07837       -10.88039
   S        5.25781       -15.17273       -12.22899
   C        4.61193       -13.95659       -11.18899
   C        4.88493       -14.22991        -9.88536
   C        4.59768       -13.65088        -8.58787
   C        3.63957       -12.70422        -8.35392
   C        2.93779       -12.09137        -9.41446
   N        2.36667       -11.58170       -10.26833
   C        3.19741       -12.30662        -7.07784
   N        2.78129       -11.97925        -6.05942
  Cl        6.73869       -17.53197       -11.11296
   H        5.18753        -1.99744         8.14161
   H        4.47877        -0.51659         2.69739
   H        3.46547        -0.68372        -2.57785
   H        5.63842        -3.98055         1.19681
   H        5.98089        -2.89662        -3.77126
   H        7.03297        -4.24262        -4.24574
   H        7.41418        -2.52232        -1.73008
   H        8.37253        -2.42802        -3.20887
   H        8.43363        -3.88286        -2.20997
   H        2.81043        -9.32299         0.00500
   H        2.77390        -8.08316         1.27908
   H        5.15026        -9.94365         0.73460
   H        3.99341       -10.10765         2.05979
   H        5.06405        -8.70430         1.99092
   H        4.29041        -9.98673        -1.54344
   H        5.77289        -8.48972        -3.77102
   H        5.98801        -9.59046        -5.81303
   H        5.22553       -13.97620        -3.70968
   H        6.17916       -15.01771        -5.82252
   H        4.08839       -13.12308       -11.61341
*
