# ORCA input file
# SCF done       -212.953787039178          0.000668242156
! CAM-B3LYP def2-SVP def2/J RIJCOSX Grid4 TightSCF
%maxcore 5000
%tddft
    Mode sTDDFT
    Ethresh 5.0
    maxcore 5000
end

%pal
  nprocs 6
  end
* xyz 0 1
   C        3.54877        -5.56370        -5.34315
   C        3.04253        -6.07102        -6.49968
   S        2.48388        -4.81319        -7.54266
   C        2.94997        -3.57448        -6.40247
  Cl        2.64604        -1.93737        -6.71171
   C        3.51017        -4.13261        -5.29300
   C        4.06011        -3.66460        -4.01807
   O        4.31804        -2.52843        -3.69488
   C        4.29739        -4.91329        -3.22367
   C        4.06313        -6.07129        -4.08752
   C        4.19048        -7.39567        -3.78199
   C        3.80835        -8.39460        -4.70381
   N        3.48331        -9.21219        -5.43940
   C        4.68265        -7.92623        -2.57169
   N        5.09365        -8.42276        -1.62228
   C        4.61862        -4.95973        -1.91198
   C        4.63720        -3.85878        -0.96456
   C        5.72472        -3.78757        -0.08186
   C        5.78460        -2.74443         0.81131
   C        4.76353        -1.78818         0.87061
   C        5.11190        -0.80895         1.93181
   O        4.50649         0.16396         2.30201
   N        6.32949        -1.23557         2.43697
   C        6.80520        -2.38978         1.82871
   O        7.84094        -2.93895         2.10029
   C        7.02029        -0.56692         3.51962
   C        6.60447        -1.13257         4.87262
   C        3.67014        -1.86171         0.04324
   C        3.59227        -2.90743        -0.88858
   C        2.45396        -3.02890        -1.76945
   C        1.79391        -1.98078        -2.30425
   C        0.85918        -2.14828        -3.36487
   N        0.25175        -1.09478        -4.00366
   C        0.41838         0.30872        -3.70454
   C        1.69454         0.86593        -4.33130
   C       -0.51198        -1.51460        -5.09976
   O       -1.13489        -0.74838        -5.81413
   C       -0.36602        -2.95262        -5.11707
   C        0.47443        -3.31277        -4.02634
   C        0.66860        -4.74063        -4.07714
   O        1.31526        -5.50648        -3.37935
   N       -0.04933        -5.15680        -5.20679
   C       -0.18358        -6.55380        -5.54494
   C       -1.55344        -7.10290        -5.15587
   C       -0.66979        -4.10148        -5.84089
   C       -1.40832        -4.22707        -7.05027
   C       -2.07728        -3.16325        -7.55283
   C       -2.84082        -3.08685        -8.76952
   C       -3.08867        -4.22091        -9.56143
   C       -3.89619        -4.09702       -10.66405
   C       -4.47953        -2.86996       -11.00813
   C       -5.29861        -3.08065       -12.22756
   O       -5.98078        -2.30346       -12.84147
   N       -5.14599        -4.42655       -12.54330
   C       -4.32418        -5.10813       -11.66240
   O       -4.05080        -6.28014       -11.72661
   C       -5.76036        -5.04141       -13.70089
   C       -4.87205        -4.90656       -14.93249
   C       -4.24293        -1.73827       -10.26298
   C       -3.40664        -1.83585        -9.14098
   C       -3.09994        -0.64324        -8.37861
   C       -3.97252         0.35184        -8.11483
   C       -3.58739         1.45314        -7.30315
   C       -4.28726         2.58494        -7.02637
   C       -3.88083         3.41751        -5.85098
   O       -2.85287         3.32373        -5.22416
   C       -5.02633         4.30615        -5.61848
   C       -5.39671         5.24661        -4.70509
   S       -6.97341         5.89373        -5.09470
   C       -7.10823         4.89155        -6.49376
   C       -6.00919         4.10536        -6.64338
   C       -5.51083         3.12500        -7.59159
   C       -6.03209         2.92808        -8.84299
   C       -7.22545         3.56506        -9.24533
   N       -8.20423         4.06358        -9.57619
   C       -5.42283         2.18338        -9.87176
   N       -4.95108         1.62513       -10.75701
  Cl       -4.53331         5.78863        -3.35184
   H        2.95260        -7.09171        -6.81423
   H        4.89740        -5.91594        -1.48534
   H        6.51447        -4.52216        -0.12595
   H        6.77174         0.49515         3.45766
   H        8.09186        -0.70915         3.36106
   H        5.53516        -1.00218         5.02216
   H        7.13440        -0.61335         5.66591
   H        6.84398        -2.19198         4.92675
   H        2.87210        -1.14084         0.12680
   H        2.18980        -4.02793        -2.09056
   H        2.05471        -0.97228        -2.02171
   H        0.41830         0.45093        -2.62144
   H       -0.45055         0.82275        -4.12526
   H        2.56983         0.30944        -4.00145
   H        1.81397         1.90944        -4.05451
   H        1.63269         0.80276        -5.41523
   H        0.59615        -7.07861        -4.98580
   H       -0.00053        -6.69213        -6.61457
   H       -1.70687        -6.99642        -4.08476
   H       -1.61070        -8.15696        -5.41171
   H       -2.34850        -6.57127        -5.67418
   H       -1.39632        -5.18523        -7.54714
   H       -2.05100        -2.26137        -6.96237
   H       -2.66764        -5.18080        -9.30923
   H       -6.71796        -4.54215       -13.86725
   H       -5.92501        -6.09474       -13.46175
   H       -4.70127        -3.85656       -15.15840
   H       -5.35430        -5.37396       -15.78615
   H       -3.91454        -5.39321       -14.76118
   H       -4.65400        -0.78433       -10.55949
   H       -2.09718        -0.54375        -7.98601
   H       -4.99596         0.28451        -8.45406
   H       -2.65277         1.34058        -6.76239
   H       -7.99167         4.94955        -7.09796
*
