# ORCA input file
# SCF done       -175.420870487594          0.000844983839
! CAM-B3LYP def2-SVP def2/J RIJCOSX Grid4 TightSCF
%maxcore 5000
%tddft
    Mode sTDDFT
    Ethresh 5.0
    maxcore 5000
end

%pal
  nprocs 6
  end
* xyz 0 1
   C        9.04443        -1.20877         4.78508
   C        9.42314        -0.75868         6.01146
   S        8.71197        -1.70204         7.27035
   C        7.88443        -2.72864         6.12335
  Cl        6.89539        -4.00558         6.63129
   C        8.16382        -2.33683         4.84787
   C        7.80734        -2.75818         3.49289
   O        7.08238        -3.67876         3.17199
   C        8.52012        -1.82301         2.59215
   C        9.27747        -0.87055         3.39347
   C       10.07040         0.16343         2.97403
   C       10.73780         0.99186         3.90228
   N       11.28731         1.67495         4.64197
   C       10.32829         0.54001         1.64002
   N       10.59116         0.91392         0.58717
   C        8.48200        -1.84494         1.22677
   C        7.79973        -2.70615         0.34551
   N        7.93343        -2.51289        -0.94939
   C        7.24185        -3.39145        -1.64759
   C        6.51124        -4.34550        -0.88760
   S        6.74245        -4.07465         0.78735
   N        5.81829        -5.23260        -1.58979
   C        5.95974        -5.02884        -2.87432
   S        7.01378        -3.66209        -3.32831
   C        5.35402        -5.79157        -3.89933
   N        4.50950        -6.85823        -3.72428
   C        4.11302        -7.45582        -2.47130
   C        5.19266        -8.38555        -1.92718
   C        4.08163        -7.38627        -4.95593
   O        3.33115        -8.33674        -5.05520
   C        4.72016        -6.55149        -5.95212
   C        5.49237        -5.58575        -5.26808
   C        6.13303        -4.73598        -6.24439
   O        6.87344        -3.78285        -6.12323
   N        5.69819        -5.24816        -7.48007
   C        6.16154        -4.68172        -8.72427
   C        7.29839        -5.49914        -9.33246
   C        4.86231        -6.33036        -7.32488
   C        4.28198        -7.03881        -8.40384
   C        3.44204        -8.09081        -8.21040
   C        2.84372        -8.84134        -9.25310
   S        1.73460       -10.12314        -8.85409
   C        1.49058       -10.52154       -10.52517
   C        2.25058        -9.67566       -11.34916
   C        2.99897        -8.74166       -10.62245
   C        2.29419        -9.71838       -12.80817
   O        2.97586        -8.99050       -13.48515
   C        0.62387       -11.56553       -10.91564
   C       -0.12301       -12.30239       -10.04906
   C       -0.98674       -13.33467       -10.47293
   C       -1.90898       -14.00324        -9.72317
   C       -2.44313       -15.30982       -10.21849
   O       -2.31744       -15.75969       -11.33206
   C       -3.08541       -15.90952        -9.04285
   C       -3.69380       -17.08630        -8.72398
   S       -4.22051       -17.07153        -7.05681
   C       -3.62141       -15.47038        -6.81509
   C       -3.04615       -14.98496        -7.94686
   C       -2.42738       -13.74926        -8.39376
   C       -2.52633       -12.55221        -7.73291
   C       -3.10562       -12.47474        -6.44864
   N       -3.56028       -12.40086        -5.39797
   C       -2.18874       -11.29331        -8.26864
   N       -1.97955       -10.23854        -8.67099
  Cl       -3.95596       -18.43177        -9.71887
   H       10.06787         0.05787         6.26919
   H        9.05491        -1.09870         0.68861
   H        3.20179        -8.02264        -2.67994
   H        3.90439        -6.66267        -1.75182
   H        5.42300        -9.16160        -2.65333
   H        4.84172        -8.85470        -1.01296
   H        6.09587        -7.82378        -1.70492
   H        6.52233        -3.67808        -8.48261
   H        5.32386        -4.59598        -9.42161
   H        8.13943        -5.53257        -8.64444
   H        7.62697        -5.03784       -10.25945
   H        6.98104        -6.51857        -9.54092
   H        4.52183        -6.71593        -9.40573
   H        3.19960        -8.39284        -7.19953
   H        3.63287        -8.02474       -11.11196
   H        1.64620       -10.48325       -13.27316
   H        0.53041       -11.75743       -11.97613
   H       -0.03793       -12.10087        -8.99028
   H       -0.87175       -13.69510       -11.49017
   H       -3.72942       -15.00804        -5.85406
*
