# ORCA input file
# SCF done       -159.967352987209          0.000498747054
! CAM-B3LYP def2-SVP def2/J RIJCOSX Grid4 TightSCF
%maxcore 5000
%tddft
    Mode sTDDFT
    Ethresh 5.0
    maxcore 5000
end

%pal
  nprocs 6
  end
* xyz 0 1
   C       12.58374         3.37172        -3.17651
   C       13.33676         4.31509        -3.80245
   S       14.85973         4.51947        -3.01655
   C       14.48228         3.29927        -1.82271
  Cl       15.58367         2.88521        -0.60552
   C       13.23777         2.78785        -2.04128
   C       12.36183         1.78445        -1.42604
   O       12.57814         1.05264        -0.49366
   C       11.07185         1.90260        -2.18925
   C       11.29115         2.73971        -3.35405
   C       10.55152         2.79339        -4.50475
   C       10.90773         3.64575        -5.57004
   N       11.16764         4.35534        -6.43328
   C        9.41429         2.00707        -4.76515
   N        8.48720         1.38271        -5.02767
   C        9.95823         1.33317        -1.66652
   C        8.58207         1.56912        -1.96993
   C        7.62691         0.55812        -1.72501
   C        6.23372         0.72007        -2.02038
   N        5.38930        -0.31893        -1.84492
   C        5.85125        -1.43162        -1.38927
   C        7.23055        -1.58056        -1.04856
   N        8.07201        -0.61939        -1.22456
   F        7.68254        -2.71677        -0.53503
   F        5.01156        -2.44581        -1.23697
   C        5.72620         1.94124        -2.51481
   C        6.66410         2.97149        -2.70771
   C        8.07123         2.79308        -2.44289
   N        8.75839         3.91632        -2.67594
   S        7.75223         5.05257        -3.18782
   N        6.39744         4.20858        -3.13515
   C        4.34411         2.14231        -2.80740
   S        3.76616         3.58930        -3.62934
   C        2.17324         2.87676        -3.47334
   N        2.19755         1.71857        -2.86317
   N        3.37660         1.32359        -2.50603
   C        0.99480         3.51542        -3.95978
   C       -0.22907         2.97763        -3.79090
   C       -1.46123         3.56711        -4.24051
   C       -2.69654         3.11421        -3.74929
   N       -3.84201         3.65820        -4.08717
   C       -3.80955         4.66896        -4.96050
   N       -2.70517         5.12279        -5.55163
   C       -1.55841         4.59628        -5.19113
   C       -5.06214         5.27057        -5.36757
   C       -6.21296         5.32171        -4.66990
   C       -7.50105         5.62980        -5.38651
   O       -7.61181         6.10878        -6.48594
   C       -8.54091         5.16014        -4.46598
   C       -9.89779         5.02019        -4.47816
   S      -10.45799         4.36192        -2.95987
   C       -8.85642         4.29473        -2.32133
   C       -7.94716         4.74373        -3.22746
   C       -6.51718         4.97280        -3.28652
   C       -5.69237         5.05480        -2.20260
   C       -6.15435         4.74818        -0.90432
   N       -6.51729         4.49036         0.15257
   C       -4.36178         5.52087        -2.23417
   N       -3.29781         5.94702        -2.18069
  Cl      -10.97477         5.39747        -5.72865
   H       13.10305         4.91147        -4.66191
   H       10.13112         0.61474        -0.87109
   H        1.13661         4.46348        -4.45660
   H       -0.30569         2.04257        -3.25206
   H       -2.74975         2.29251        -3.04567
   H       -0.68554         4.98783        -5.69662
   H       -5.07539         5.67063        -6.37477
   H       -8.69866         3.92010        -1.32942
*
