# ORCA input file
# SCF done       -194.701053267801          0.000552322978
! CAM-B3LYP def2-SVP def2/J RIJCOSX Grid4 TightSCF
%maxcore 5000
%tddft
    Mode sTDDFT
    Ethresh 5.0
    maxcore 5000
end

%pal
  nprocs 6
  end
* xyz 0 1
   C       -0.07116         0.23960        -1.14894
   C       -0.01389         1.46319        -1.75361
   C       -0.07726         1.64945        -3.15014
   N       -0.13210         1.84914        -4.27880
   C        0.22956         2.66713        -1.05803
   N        0.51065         3.65823        -0.55258
   C       -0.02857        -1.05146        -1.82499
   C        0.38316        -2.04506        -0.88728
   C        0.54709        -3.35122        -1.25172
   C        0.29442        -3.73058        -2.58874
   C       -0.12992        -2.74494        -3.52718
   C       -0.28667        -1.39919        -3.12387
   C       -0.38338        -3.13884        -4.85696
   C       -0.22494        -4.44172        -5.24359
   C        0.19235        -5.41126        -4.31908
   C        0.44707        -5.06325        -3.02046
   C        0.55702        -1.42807         0.43773
   O        0.94937        -1.93695         1.46053
   C        0.06981        -0.02246         0.27271
   C       -0.29995         0.68636         1.36442
   C       -1.12608         1.84274         1.39499
   S       -1.29051         2.84045         2.83037
   C       -2.45003         3.76702         1.89624
   N       -2.62080         3.28363         0.69134
   N       -1.89829         2.24350         0.41952
   C       -3.13022         4.89493         2.42449
   C       -3.98997         5.62069         1.66686
   C       -4.72420         6.72047         2.17685
   N       -5.61737         7.45368         1.42904
   C       -5.95616         7.24219         0.04203
   C       -6.93797         6.08678        -0.13546
   C       -6.24133         8.45555         2.18690
   O       -7.07280         9.22094         1.73619
   C       -5.65968         8.32436         3.50472
   C       -4.72872         7.25478         3.46287
   C       -4.15052         7.11733         4.78115
   O       -3.32571         6.34904         5.23430
   N       -4.77861         8.11910         5.54205
   C       -4.42565         8.33682         6.92443
   C       -3.50175         9.54033         7.09345
   C       -5.68158         8.84153         4.79795
   C       -6.49168         9.87930         5.33485
   C       -7.39582        10.54669         4.58190
   C       -8.29847        11.56641         5.04839
   C       -8.24767        12.11763         6.32938
   C       -9.16833        13.06825         6.73439
   N       -9.07233        13.51865         8.09989
   O       -8.00254        13.38024         8.65549
   O      -10.06059        13.99100         8.62127
   C      -10.18900        13.52600         5.87845
   C      -10.22171        12.97025         4.59040
   C       -9.30838        12.02663         4.18602
   C      -11.13696        14.54741         6.25551
   C      -12.41118        14.57931         5.80607
   C      -13.31692        15.60057         6.20046
   C      -14.62908        15.64766         5.84043
   C      -15.60607        16.64715         6.24397
   C      -15.34391        17.85433         6.83459
   C      -16.33782        18.79081         7.19085
   N      -17.09801        19.59136         7.50507
   C      -14.05817        18.35659         7.12895
   N      -13.04825        18.84373         7.37566
   C      -16.92312        16.16400         5.84758
   C      -16.76334        14.95191         5.11653
   C      -15.33465        14.60571         5.04251
   O      -14.84652        13.66352         4.45459
   C      -17.83099        14.27140         4.60518
   C      -19.13361        14.77656         4.81242
   C      -19.30305        15.98353         5.55095
   C      -18.17839        16.66928         6.06354
   C      -20.60813        16.47553         5.75733
   C      -21.69423        15.80956         5.25841
   C      -21.52614        14.62185         4.53061
   C      -20.27328        14.11653         4.31211
   H        0.86479        -4.08695        -0.52786
   H       -0.61920        -0.67415        -3.85024
   H       -0.70173        -2.38853        -5.56559
   H       -0.42010        -4.73300        -6.26474
   H        0.31075        -6.43494        -4.64123
   H        0.76888        -5.80510        -2.30433
   H       -0.00622         0.28100         2.32595
   H       -2.94583         5.14966         3.45873
   H       -4.12741         5.33625         0.63411
   H       -5.04307         7.06866        -0.53318
   H       -6.41927         8.17189        -0.30061
   H       -6.51423         5.15413         0.22973
   H       -7.18059         5.97143        -1.18805
   H       -7.85467         6.29055         0.41268
   H       -3.90850         7.42940         7.24868
   H       -5.33402         8.45457         7.52219
   H       -2.58297         9.38441         6.53360
   H       -3.25169         9.66638         8.14309
   H       -3.97418        10.45199         6.73440
   H       -6.37718        10.09758         6.38622
   H       -7.48793        10.28837         3.53509
   H       -7.49624        11.81303         7.04159
   H      -10.97244        13.31842         3.89853
   H       -9.36176        11.61953         3.18744
   H      -10.81005        15.30910         6.95142
   H      -12.79122        13.79735         5.16530
   H      -12.92120        16.36627         6.85566
   H      -17.68268        13.35576         4.05202
   H      -18.34060        17.57746         6.62195
   H      -20.73232        17.39078         6.31725
   H      -22.68967        16.19435         5.42185
   H      -22.39447        14.10932         4.14443
   H      -20.13772        13.20238         3.75281
*
